/*---------------------------------------------------------------------------*\
  =========                 |
  \\      /  F ield         | OpenFOAM: The Open Source CFD Toolbox
   \\    /   O peration     | Website:  https://openfoam.org
    \\  /    A nd           | Version:  7
     \\/     M anipulation  |
\*---------------------------------------------------------------------------*/
Build  : 7
Exec   : /home/fjc2/OpenFOAM/fjc2-7/platforms/linux64GccDPInt32Opt/bin/hybridMultiphaseFoam
Date   : Oct 14 2019
Time   : 15:30:42
Host   : "perseus-r2c2n2"
PID    : 23467
I/O    : uncollated
Case   : /tigress/fjc2/applications/hybridMultiphaseFoamV7/tutorials/FreeFlowCases/FlatPlateContactAngle/porousBoundary
nProcs : 1
sigFpe : Enabling floating point exception trapping (FOAM_SIGFPE).
fileModificationChecking : Monitoring run-time modified files using timeStampMaster (fileModificationSkew 10)
allowSystemOperations : Allowing user-supplied system call operations

// * * * * * * * * * * * * * * * * * * * * * * * * * * * * * * * * * * * * * //
Create time

Create mesh for time = 0


PIMPLE: No convergence criteria found


PIMPLE: No corrector convergence criteria found
        Calculations will do 2 corrections


PIMPLE: Operating solver in transient mode with 2 outer correctors


Reading field p

Reading wetting fluid velocity field Uwetting

Reading wetting fluid velocity field UnonWetting

Reading fluid velocity field 'U'

Reading field fluid fraction field eps

Reading/calculating face flux field phi

Reading transportProperties

Selecting incompressible transport model Newtonian
Selecting incompressible transport model Newtonian
Calculating superficial mass flux


Reading g

Reading hRef
Calculating field g.h

Reading intrinsic permeability field field K

Selecting relativePermeability model => VanGenuchten

Selecting capillarity model => VanGenuchten

Initializing Relative Velocity Field Ur

DICPCG:  Solving for pcorr, Initial residual = 0, Final residual = 0, No Iterations 0
time step continuity errors : sum local = 0, global = 0, cumulative = 0
Courant Number mean: 0 max: 0

Starting time loop

Courant Number mean: 0 max: 0
Interface Courant Number mean: 0 max: 0
deltaT = 0.0119048
Time = 0.0119048

PIMPLE: Iteration 1
smoothSolver:  Solving for alpha.wetting, Initial residual = 0, Final residual = 0, No Iterations 0
Phase-1 volume fraction = 0.138889  Min(alpha.wetting) = 0  Max(alpha.wetting) = 1
MULES: Correcting alpha.wetting
MULES: Correcting alpha.wetting
Phase-1 volume fraction = 0.138889  Min(alpha.wetting) = 0  Max(alpha.wetting) = 1
smoothSolver:  Solving for alpha.wetting, Initial residual = 0, Final residual = 0, No Iterations 0
Phase-1 volume fraction = 0.138889  Min(alpha.wetting) = 0  Max(alpha.wetting) = 1
MULES: Correcting alpha.wetting
MULES: Correcting alpha.wetting
Phase-1 volume fraction = 0.138889  Min(alpha.wetting) = 0  Max(alpha.wetting) = 1
GAMG:  Solving for p, Initial residual = 1, Final residual = 0.043419, No Iterations 1
time step continuity errors : sum local = 0.00280099, global = -1.67964e-05, cumulative = -1.67964e-05
GAMG:  Solving for p, Initial residual = 0.0162379, Final residual = 0.00146291, No Iterations 2
time step continuity errors : sum local = 0.000281735, global = 1.71182e-06, cumulative = -1.50846e-05
GAMG:  Solving for p, Initial residual = 0.00254529, Final residual = 3.57581e-07, No Iterations 7
time step continuity errors : sum local = 6.89945e-08, global = -3.82875e-08, cumulative = -1.51229e-05
PIMPLE: Iteration 2
smoothSolver:  Solving for alpha.wetting, Initial residual = 0.000980526, Final residual = 3.55786e-09, No Iterations 7
Phase-1 volume fraction = 0.138889  Min(alpha.wetting) = 0  Max(alpha.wetting) = 1.00001
MULES: Correcting alpha.wetting
MULES: Correcting alpha.wetting
Phase-1 volume fraction = 0.138889  Min(alpha.wetting) = 0  Max(alpha.wetting) = 1.00001
smoothSolver:  Solving for alpha.wetting, Initial residual = 0.000639509, Final residual = 2.85196e-09, No Iterations 6
Phase-1 volume fraction = 0.138889  Min(alpha.wetting) = 0  Max(alpha.wetting) = 1.00001
MULES: Correcting alpha.wetting
MULES: Correcting alpha.wetting
Phase-1 volume fraction = 0.138889  Min(alpha.wetting) = 0  Max(alpha.wetting) = 1.00001
GAMG:  Solving for p, Initial residual = 0.176234, Final residual = 0.0173352, No Iterations 1
time step continuity errors : sum local = 0.00234314, global = 4.96077e-08, cumulative = -1.50733e-05
GAMG:  Solving for p, Initial residual = 0.0274826, Final residual = 0.00108061, No Iterations 3
time step continuity errors : sum local = 0.000157405, global = -7.09807e-07, cumulative = -1.57831e-05
GAMG:  Solving for p, Initial residual = 0.00923268, Final residual = 3.58861e-07, No Iterations 9
time step continuity errors : sum local = 6.90431e-08, global = 3.7609e-08, cumulative = -1.57455e-05
ExecutionTime = 2.2 s  ClockTime = 2 s

Courant Number mean: 0.0110889 max: 7.07972
Interface Courant Number mean: 0.00198148 max: 5.4303
deltaT = 0.00167673
Time = 0.0135815

PIMPLE: Iteration 1
smoothSolver:  Solving for alpha.wetting, Initial residual = 9.33734e-05, Final residual = 1.41084e-09, No Iterations 2
Phase-1 volume fraction = 0.138889  Min(alpha.wetting) = 0  Max(alpha.wetting) = 1.00001
MULES: Correcting alpha.wetting
MULES: Correcting alpha.wetting
Phase-1 volume fraction = 0.138889  Min(alpha.wetting) = 0  Max(alpha.wetting) = 1.00001
smoothSolver:  Solving for alpha.wetting, Initial residual = 9.16069e-05, Final residual = 1.61262e-09, No Iterations 2
Phase-1 volume fraction = 0.138889  Min(alpha.wetting) = 0  Max(alpha.wetting) = 1.00001
MULES: Correcting alpha.wetting
MULES: Correcting alpha.wetting
Phase-1 volume fraction = 0.138889  Min(alpha.wetting) = 0  Max(alpha.wetting) = 1.00001
GAMG:  Solving for p, Initial residual = 0.163658, Final residual = 0.00599127, No Iterations 1
time step continuity errors : sum local = 3.14003e-05, global = 8.62049e-09, cumulative = -1.57369e-05
GAMG:  Solving for p, Initial residual = 0.018147, Final residual = 0.000596156, No Iterations 2
time step continuity errors : sum local = 2.36915e-06, global = 1.07797e-08, cumulative = -1.57261e-05
GAMG:  Solving for p, Initial residual = 0.00480225, Final residual = 4.65351e-07, No Iterations 8
time step continuity errors : sum local = 2.20327e-09, global = -1.19254e-09, cumulative = -1.57273e-05
PIMPLE: Iteration 2
smoothSolver:  Solving for alpha.wetting, Initial residual = 0.000115437, Final residual = 9.13946e-10, No Iterations 2
Phase-1 volume fraction = 0.138889  Min(alpha.wetting) = 0  Max(alpha.wetting) = 1.00001
MULES: Correcting alpha.wetting
MULES: Correcting alpha.wetting
Phase-1 volume fraction = 0.138889  Min(alpha.wetting) = 0  Max(alpha.wetting) = 1.00001
smoothSolver:  Solving for alpha.wetting, Initial residual = 8.62968e-05, Final residual = 6.7816e-10, No Iterations 2
Phase-1 volume fraction = 0.138889  Min(alpha.wetting) = 0  Max(alpha.wetting) = 1.00001
MULES: Correcting alpha.wetting
MULES: Correcting alpha.wetting
Phase-1 volume fraction = 0.138889  Min(alpha.wetting) = 0  Max(alpha.wetting) = 1.00001
GAMG:  Solving for p, Initial residual = 0.0300254, Final residual = 0.00192283, No Iterations 1
time step continuity errors : sum local = 1.10487e-05, global = 2.94772e-11, cumulative = -1.57273e-05
GAMG:  Solving for p, Initial residual = 0.00320236, Final residual = 0.000315939, No Iterations 2
time step continuity errors : sum local = 1.7906e-06, global = -2.68962e-09, cumulative = -1.57299e-05
GAMG:  Solving for p, Initial residual = 0.000787354, Final residual = 6.58412e-07, No Iterations 7
time step continuity errors : sum local = 3.67792e-09, global = 1.25308e-09, cumulative = -1.57287e-05
ExecutionTime = 3.54 s  ClockTime = 4 s

Courant Number mean: 0.00155818 max: 0.755152
Interface Courant Number mean: 0.000304311 max: 0.545456
deltaT = 0.00189135
Time = 0.0154728

PIMPLE: Iteration 1
smoothSolver:  Solving for alpha.wetting, Initial residual = 9.54322e-05, Final residual = 7.23389e-10, No Iterations 2
Phase-1 volume fraction = 0.138889  Min(alpha.wetting) = 0  Max(alpha.wetting) = 1.00001
MULES: Correcting alpha.wetting
MULES: Correcting alpha.wetting
Phase-1 volume fraction = 0.138889  Min(alpha.wetting) = 0  Max(alpha.wetting) = 1.00001
smoothSolver:  Solving for alpha.wetting, Initial residual = 9.34902e-05, Final residual = 6.96705e-10, No Iterations 2
Phase-1 volume fraction = 0.138889  Min(alpha.wetting) = 0  Max(alpha.wetting) = 1.00001
MULES: Correcting alpha.wetting
MULES: Correcting alpha.wetting
Phase-1 volume fraction = 0.138889  Min(alpha.wetting) = 0  Max(alpha.wetting) = 1.00001
GAMG:  Solving for p, Initial residual = 0.0466484, Final residual = 0.00231219, No Iterations 1
time step continuity errors : sum local = 1.58842e-05, global = -2.72539e-10, cumulative = -1.5729e-05
GAMG:  Solving for p, Initial residual = 0.0043933, Final residual = 0.000381825, No Iterations 2
time step continuity errors : sum local = 2.62713e-06, global = 7.11983e-10, cumulative = -1.57283e-05
GAMG:  Solving for p, Initial residual = 0.00125373, Final residual = 4.251e-07, No Iterations 7
time step continuity errors : sum local = 3.05923e-09, global = -1.37143e-09, cumulative = -1.57296e-05
PIMPLE: Iteration 2
smoothSolver:  Solving for alpha.wetting, Initial residual = 9.90995e-05, Final residual = 5.65431e-10, No Iterations 2
Phase-1 volume fraction = 0.138889  Min(alpha.wetting) = 0  Max(alpha.wetting) = 1.00001
MULES: Correcting alpha.wetting
MULES: Correcting alpha.wetting
Phase-1 volume fraction = 0.138889  Min(alpha.wetting) = 0  Max(alpha.wetting) = 1.00001
smoothSolver:  Solving for alpha.wetting, Initial residual = 9.55185e-05, Final residual = 4.34661e-10, No Iterations 2
Phase-1 volume fraction = 0.138889  Min(alpha.wetting) = 0  Max(alpha.wetting) = 1.00001
MULES: Correcting alpha.wetting
MULES: Correcting alpha.wetting
Phase-1 volume fraction = 0.138889  Min(alpha.wetting) = 0  Max(alpha.wetting) = 1.00001
GAMG:  Solving for p, Initial residual = 0.0165021, Final residual = 0.000703724, No Iterations 1
time step continuity errors : sum local = 5.38427e-06, global = 2.48128e-09, cumulative = -1.57271e-05
GAMG:  Solving for p, Initial residual = 0.00122687, Final residual = 0.000102609, No Iterations 2
time step continuity errors : sum local = 7.77077e-07, global = -1.29817e-09, cumulative = -1.57284e-05
GAMG:  Solving for p, Initial residual = 0.000240722, Final residual = 4.66881e-07, No Iterations 6
time step continuity errors : sum local = 3.5027e-09, global = 8.05092e-10, cumulative = -1.57276e-05
ExecutionTime = 4.89 s  ClockTime = 5 s

Courant Number mean: 0.00185565 max: 0.740274
Interface Courant Number mean: 0.000331133 max: 0.504588
deltaT = 0.00213207
Time = 0.0176049

PIMPLE: Iteration 1
smoothSolver:  Solving for alpha.wetting, Initial residual = 0.000107617, Final residual = 5.95953e-10, No Iterations 2
Phase-1 volume fraction = 0.138889  Min(alpha.wetting) = 0  Max(alpha.wetting) = 1.00001
MULES: Correcting alpha.wetting
MULES: Correcting alpha.wetting
Phase-1 volume fraction = 0.138889  Min(alpha.wetting) = 0  Max(alpha.wetting) = 1.00001
smoothSolver:  Solving for alpha.wetting, Initial residual = 0.000105695, Final residual = 5.47433e-10, No Iterations 2
Phase-1 volume fraction = 0.138889  Min(alpha.wetting) = 0  Max(alpha.wetting) = 1.00001
MULES: Correcting alpha.wetting
MULES: Correcting alpha.wetting
Phase-1 volume fraction = 0.138889  Min(alpha.wetting) = 0  Max(alpha.wetting) = 1.00001
GAMG:  Solving for p, Initial residual = 0.0324006, Final residual = 0.00116089, No Iterations 1
time step continuity errors : sum local = 1.07148e-05, global = -9.71925e-10, cumulative = -1.57286e-05
GAMG:  Solving for p, Initial residual = 0.0029707, Final residual = 0.000139564, No Iterations 2
time step continuity errors : sum local = 1.27909e-06, global = -8.42956e-10, cumulative = -1.57295e-05
GAMG:  Solving for p, Initial residual = 0.000659019, Final residual = 2.31782e-07, No Iterations 6
time step continuity errors : sum local = 2.13729e-09, global = -1.67067e-09, cumulative = -1.57311e-05
PIMPLE: Iteration 2
smoothSolver:  Solving for alpha.wetting, Initial residual = 0.000105731, Final residual = 5.19444e-10, No Iterations 2
Phase-1 volume fraction = 0.138889  Min(alpha.wetting) = 0  Max(alpha.wetting) = 1.00001
MULES: Correcting alpha.wetting
MULES: Correcting alpha.wetting
Phase-1 volume fraction = 0.138889  Min(alpha.wetting) = 0  Max(alpha.wetting) = 1.00001
smoothSolver:  Solving for alpha.wetting, Initial residual = 0.000103894, Final residual = 2.75073e-10, No Iterations 2
Phase-1 volume fraction = 0.138889  Min(alpha.wetting) = 0  Max(alpha.wetting) = 1.00001
MULES: Correcting alpha.wetting
MULES: Correcting alpha.wetting
Phase-1 volume fraction = 0.138889  Min(alpha.wetting) = 0  Max(alpha.wetting) = 1.00001
GAMG:  Solving for p, Initial residual = 0.02009, Final residual = 0.000693959, No Iterations 1
time step continuity errors : sum local = 6.4918e-06, global = 2.45969e-09, cumulative = -1.57287e-05
GAMG:  Solving for p, Initial residual = 0.00102876, Final residual = 8.88325e-05, No Iterations 2
time step continuity errors : sum local = 8.31817e-07, global = -1.96842e-09, cumulative = -1.57306e-05
GAMG:  Solving for p, Initial residual = 0.000207551, Final residual = 9.37188e-07, No Iterations 5
time step continuity errors : sum local = 8.79864e-09, global = 3.71223e-10, cumulative = -1.57303e-05
ExecutionTime = 6.2 s  ClockTime = 6 s

Courant Number mean: 0.00219929 max: 0.674292
Interface Courant Number mean: 0.000341497 max: 0.526444
deltaT = 0.00244626
Time = 0.0200512

PIMPLE: Iteration 1
smoothSolver:  Solving for alpha.wetting, Initial residual = 0.000116945, Final residual = 3.99241e-10, No Iterations 2
Phase-1 volume fraction = 0.138889  Min(alpha.wetting) = 0  Max(alpha.wetting) = 1.00001
MULES: Correcting alpha.wetting
MULES: Correcting alpha.wetting
Phase-1 volume fraction = 0.138889  Min(alpha.wetting) = 0  Max(alpha.wetting) = 1.00001
smoothSolver:  Solving for alpha.wetting, Initial residual = 0.000114782, Final residual = 3.65158e-10, No Iterations 2
Phase-1 volume fraction = 0.138889  Min(alpha.wetting) = 0  Max(alpha.wetting) = 1.00001
MULES: Correcting alpha.wetting
MULES: Correcting alpha.wetting
Phase-1 volume fraction = 0.138889  Min(alpha.wetting) = 0  Max(alpha.wetting) = 1.00001
GAMG:  Solving for p, Initial residual = 0.0449667, Final residual = 0.00116018, No Iterations 1
time step continuity errors : sum local = 1.40014e-05, global = -1.89423e-10, cumulative = -1.57305e-05
GAMG:  Solving for p, Initial residual = 0.00257547, Final residual = 0.000117071, No Iterations 2
time step continuity errors : sum local = 1.35895e-06, global = -1.10775e-10, cumulative = -1.57306e-05
GAMG:  Solving for p, Initial residual = 0.000517412, Final residual = 8.73101e-07, No Iterations 5
time step continuity errors : sum local = 1.00703e-08, global = -1.22646e-09, cumulative = -1.57318e-05
PIMPLE: Iteration 2
smoothSolver:  Solving for alpha.wetting, Initial residual = 0.000123663, Final residual = 4.06194e-10, No Iterations 2
Phase-1 volume fraction = 0.138889  Min(alpha.wetting) = 0  Max(alpha.wetting) = 1.00001
MULES: Correcting alpha.wetting
MULES: Correcting alpha.wetting
Phase-1 volume fraction = 0.138889  Min(alpha.wetting) = 0  Max(alpha.wetting) = 1.00001
smoothSolver:  Solving for alpha.wetting, Initial residual = 0.000108848, Final residual = 1.87033e-10, No Iterations 2
Phase-1 volume fraction = 0.138889  Min(alpha.wetting) = 0  Max(alpha.wetting) = 1.00001
MULES: Correcting alpha.wetting
MULES: Correcting alpha.wetting
Phase-1 volume fraction = 0.138889  Min(alpha.wetting) = 0  Max(alpha.wetting) = 1.00001
GAMG:  Solving for p, Initial residual = 0.0194326, Final residual = 0.000748085, No Iterations 1
time step continuity errors : sum local = 8.45242e-06, global = 1.91611e-09, cumulative = -1.57299e-05
GAMG:  Solving for p, Initial residual = 0.00108557, Final residual = 7.20966e-05, No Iterations 2
time step continuity errors : sum local = 8.01971e-07, global = -5.21745e-10, cumulative = -1.57304e-05
GAMG:  Solving for p, Initial residual = 0.000191716, Final residual = 8.53976e-07, No Iterations 4
time step continuity errors : sum local = 9.22163e-09, global = 2.65608e-09, cumulative = -1.57277e-05
ExecutionTime = 7.52 s  ClockTime = 8 s

Courant Number mean: 0.00265449 max: 0.596059
Interface Courant Number mean: 0.000371097 max: 0.411447
deltaT = 0.00283887
Time = 0.02289

PIMPLE: Iteration 1
smoothSolver:  Solving for alpha.wetting, Initial residual = 0.0001235, Final residual = 3.36001e-10, No Iterations 2
Phase-1 volume fraction = 0.138889  Min(alpha.wetting) = 0  Max(alpha.wetting) = 1.00001
MULES: Correcting alpha.wetting
MULES: Correcting alpha.wetting
Phase-1 volume fraction = 0.138889  Min(alpha.wetting) = 0  Max(alpha.wetting) = 1.00001
smoothSolver:  Solving for alpha.wetting, Initial residual = 0.000122011, Final residual = 3.13005e-10, No Iterations 2
Phase-1 volume fraction = 0.138889  Min(alpha.wetting) = 0  Max(alpha.wetting) = 1.00001
MULES: Correcting alpha.wetting
MULES: Correcting alpha.wetting
Phase-1 volume fraction = 0.138889  Min(alpha.wetting) = 0  Max(alpha.wetting) = 1.00001
GAMG:  Solving for p, Initial residual = 0.0385433, Final residual = 0.00131508, No Iterations 1
time step continuity errors : sum local = 1.81823e-05, global = 5.60032e-09, cumulative = -1.57221e-05
GAMG:  Solving for p, Initial residual = 0.0025038, Final residual = 0.000141224, No Iterations 2
time step continuity errors : sum local = 1.88716e-06, global = 4.66048e-09, cumulative = -1.57175e-05
GAMG:  Solving for p, Initial residual = 0.000535024, Final residual = 7.45408e-07, No Iterations 6
time step continuity errors : sum local = 1.00697e-08, global = -1.68486e-09, cumulative = -1.57192e-05
PIMPLE: Iteration 2
smoothSolver:  Solving for alpha.wetting, Initial residual = 0.000139523, Final residual = 4.57587e-10, No Iterations 2
Phase-1 volume fraction = 0.138889  Min(alpha.wetting) = 0  Max(alpha.wetting) = 1.00001
MULES: Correcting alpha.wetting
MULES: Correcting alpha.wetting
Phase-1 volume fraction = 0.138889  Min(alpha.wetting) = 0  Max(alpha.wetting) = 1.00001
smoothSolver:  Solving for alpha.wetting, Initial residual = 0.000118041, Final residual = 2.50737e-10, No Iterations 2
Phase-1 volume fraction = 0.138889  Min(alpha.wetting) = 0  Max(alpha.wetting) = 1.00001
MULES: Correcting alpha.wetting
MULES: Correcting alpha.wetting
Phase-1 volume fraction = 0.138889  Min(alpha.wetting) = 0  Max(alpha.wetting) = 1.00001
GAMG:  Solving for p, Initial residual = 0.0222336, Final residual = 0.000814678, No Iterations 1
time step continuity errors : sum local = 1.11277e-05, global = -8.89159e-10, cumulative = -1.57201e-05
GAMG:  Solving for p, Initial residual = 0.00109095, Final residual = 4.04832e-05, No Iterations 3
time step continuity errors : sum local = 5.43174e-07, global = 9.73613e-11, cumulative = -1.572e-05
GAMG:  Solving for p, Initial residual = 0.000188771, Final residual = 4.57586e-07, No Iterations 5
time step continuity errors : sum local = 5.95399e-09, global = 2.63034e-09, cumulative = -1.57173e-05
ExecutionTime = 8.86 s  ClockTime = 9 s

Courant Number mean: 0.00328227 max: 0.542288
Interface Courant Number mean: 0.00044586 max: 0.496307
deltaT = 0.00333985
Time = 0.0262299

PIMPLE: Iteration 1
smoothSolver:  Solving for alpha.wetting, Initial residual = 0.000138278, Final residual = 5.12795e-10, No Iterations 2
Phase-1 volume fraction = 0.138889  Min(alpha.wetting) = 0  Max(alpha.wetting) = 1.00001
MULES: Correcting alpha.wetting
MULES: Correcting alpha.wetting
Phase-1 volume fraction = 0.138889  Min(alpha.wetting) = 0  Max(alpha.wetting) = 1.00001
smoothSolver:  Solving for alpha.wetting, Initial residual = 0.000137456, Final residual = 4.93597e-10, No Iterations 2
Phase-1 volume fraction = 0.138889  Min(alpha.wetting) = 0  Max(alpha.wetting) = 1.00001
MULES: Correcting alpha.wetting
MULES: Correcting alpha.wetting
Phase-1 volume fraction = 0.138889  Min(alpha.wetting) = 0  Max(alpha.wetting) = 1.00001
GAMG:  Solving for p, Initial residual = 0.0361455, Final residual = 0.0012995, No Iterations 1
time step continuity errors : sum local = 2.25596e-05, global = 3.17093e-09, cumulative = -1.57142e-05
GAMG:  Solving for p, Initial residual = 0.00236227, Final residual = 0.000121698, No Iterations 2
time step continuity errors : sum local = 2.05527e-06, global = 2.52062e-09, cumulative = -1.57116e-05
GAMG:  Solving for p, Initial residual = 0.000531527, Final residual = 5.28244e-07, No Iterations 7
time step continuity errors : sum local = 8.93599e-09, global = -1.16546e-09, cumulative = -1.57128e-05
PIMPLE: Iteration 2
smoothSolver:  Solving for alpha.wetting, Initial residual = 0.000160559, Final residual = 6.63154e-10, No Iterations 2
Phase-1 volume fraction = 0.138889  Min(alpha.wetting) = 0  Max(alpha.wetting) = 1.00001
MULES: Correcting alpha.wetting
MULES: Correcting alpha.wetting
Phase-1 volume fraction = 0.138889  Min(alpha.wetting) = 0  Max(alpha.wetting) = 1.00001
smoothSolver:  Solving for alpha.wetting, Initial residual = 0.000135958, Final residual = 4.02102e-10, No Iterations 2
Phase-1 volume fraction = 0.138889  Min(alpha.wetting) = 0  Max(alpha.wetting) = 1.00001
MULES: Correcting alpha.wetting
MULES: Correcting alpha.wetting
Phase-1 volume fraction = 0.138889  Min(alpha.wetting) = 0  Max(alpha.wetting) = 1.00001
GAMG:  Solving for p, Initial residual = 0.0190256, Final residual = 0.00107706, No Iterations 1
time step continuity errors : sum local = 1.81332e-05, global = 4.23618e-09, cumulative = -1.57086e-05
GAMG:  Solving for p, Initial residual = 0.00143351, Final residual = 0.000102086, No Iterations 2
time step continuity errors : sum local = 1.69312e-06, global = -1.46962e-09, cumulative = -1.571e-05
GAMG:  Solving for p, Initial residual = 0.000305072, Final residual = 6.10844e-07, No Iterations 5
time step continuity errors : sum local = 9.97446e-09, global = 2.71552e-09, cumulative = -1.57073e-05
ExecutionTime = 10.19 s  ClockTime = 10 s

Courant Number mean: 0.00416006 max: 0.622017
Interface Courant Number mean: 0.000576536 max: 0.613389
deltaT = 0.00385811
Time = 0.030088

PIMPLE: Iteration 1
smoothSolver:  Solving for alpha.wetting, Initial residual = 0.000157076, Final residual = 7.84955e-10, No Iterations 2
Phase-1 volume fraction = 0.138889  Min(alpha.wetting) = 0  Max(alpha.wetting) = 1.00001
MULES: Correcting alpha.wetting
MULES: Correcting alpha.wetting
Phase-1 volume fraction = 0.138889  Min(alpha.wetting) = 0  Max(alpha.wetting) = 1.00001
smoothSolver:  Solving for alpha.wetting, Initial residual = 0.000155341, Final residual = 7.30941e-10, No Iterations 2
Phase-1 volume fraction = 0.138889  Min(alpha.wetting) = 0  Max(alpha.wetting) = 1.00001
MULES: Correcting alpha.wetting
MULES: Correcting alpha.wetting
Phase-1 volume fraction = 0.138889  Min(alpha.wetting) = 0  Max(alpha.wetting) = 1.00001
GAMG:  Solving for p, Initial residual = 0.045004, Final residual = 0.00144527, No Iterations 1
time step continuity errors : sum local = 3.04283e-05, global = 2.58204e-09, cumulative = -1.57047e-05
GAMG:  Solving for p, Initial residual = 0.00224681, Final residual = 9.72889e-05, No Iterations 2
time step continuity errors : sum local = 1.99309e-06, global = 2.23827e-09, cumulative = -1.57025e-05
GAMG:  Solving for p, Initial residual = 0.000500507, Final residual = 8.19658e-07, No Iterations 6
time step continuity errors : sum local = 1.68673e-08, global = 2.76816e-10, cumulative = -1.57022e-05
PIMPLE: Iteration 2
smoothSolver:  Solving for alpha.wetting, Initial residual = 0.000176779, Final residual = 1.03727e-09, No Iterations 2
Phase-1 volume fraction = 0.138889  Min(alpha.wetting) = 0  Max(alpha.wetting) = 1.00001
MULES: Correcting alpha.wetting
MULES: Correcting alpha.wetting
Phase-1 volume fraction = 0.138889  Min(alpha.wetting) = 0  Max(alpha.wetting) = 1.00001
smoothSolver:  Solving for alpha.wetting, Initial residual = 0.00015647, Final residual = 7.38446e-10, No Iterations 2
Phase-1 volume fraction = 0.138889  Min(alpha.wetting) = 0  Max(alpha.wetting) = 1.00001
MULES: Correcting alpha.wetting
MULES: Correcting alpha.wetting
Phase-1 volume fraction = 0.138889  Min(alpha.wetting) = 0  Max(alpha.wetting) = 1.00001
GAMG:  Solving for p, Initial residual = 0.0241635, Final residual = 0.00101091, No Iterations 1
time step continuity errors : sum local = 2.10034e-05, global = 5.32385e-09, cumulative = -1.56969e-05
GAMG:  Solving for p, Initial residual = 0.00131498, Final residual = 6.48021e-05, No Iterations 2
time step continuity errors : sum local = 1.33741e-06, global = 3.87502e-10, cumulative = -1.56965e-05
GAMG:  Solving for p, Initial residual = 0.000249862, Final residual = 4.47833e-07, No Iterations 5
time step continuity errors : sum local = 9.39317e-09, global = 8.35367e-10, cumulative = -1.56957e-05
ExecutionTime = 11.51 s  ClockTime = 12 s

Courant Number mean: 0.00518521 max: 0.933891
Interface Courant Number mean: 0.000718123 max: 0.894437
deltaT = 0.00407244
Time = 0.0341604

PIMPLE: Iteration 1
smoothSolver:  Solving for alpha.wetting, Initial residual = 0.000164882, Final residual = 9.26336e-10, No Iterations 2
Phase-1 volume fraction = 0.138889  Min(alpha.wetting) = 0  Max(alpha.wetting) = 1.00001
MULES: Correcting alpha.wetting
MULES: Correcting alpha.wetting
Phase-1 volume fraction = 0.138889  Min(alpha.wetting) = 0  Max(alpha.wetting) = 1.00001
smoothSolver:  Solving for alpha.wetting, Initial residual = 0.000163354, Final residual = 8.8538e-10, No Iterations 2
Phase-1 volume fraction = 0.138889  Min(alpha.wetting) = 0  Max(alpha.wetting) = 1.00001
MULES: Correcting alpha.wetting
MULES: Correcting alpha.wetting
Phase-1 volume fraction = 0.138889  Min(alpha.wetting) = 0  Max(alpha.wetting) = 1.00001
GAMG:  Solving for p, Initial residual = 0.0376621, Final residual = 0.00127526, No Iterations 1
time step continuity errors : sum local = 3.01805e-05, global = -2.54503e-09, cumulative = -1.56982e-05
GAMG:  Solving for p, Initial residual = 0.00202348, Final residual = 7.42785e-05, No Iterations 2
time step continuity errors : sum local = 1.69646e-06, global = -2.06752e-09, cumulative = -1.57003e-05
GAMG:  Solving for p, Initial residual = 0.000420338, Final residual = 8.04928e-07, No Iterations 6
time step continuity errors : sum local = 1.83084e-08, global = 6.4373e-10, cumulative = -1.56996e-05
PIMPLE: Iteration 2
smoothSolver:  Solving for alpha.wetting, Initial residual = 0.000180297, Final residual = 1.2146e-09, No Iterations 2
Phase-1 volume fraction = 0.138889  Min(alpha.wetting) = 0  Max(alpha.wetting) = 1.00001
MULES: Correcting alpha.wetting
MULES: Correcting alpha.wetting
Phase-1 volume fraction = 0.138889  Min(alpha.wetting) = 0  Max(alpha.wetting) = 1.00001
smoothSolver:  Solving for alpha.wetting, Initial residual = 0.000168713, Final residual = 9.37635e-10, No Iterations 2
Phase-1 volume fraction = 0.138889  Min(alpha.wetting) = 0  Max(alpha.wetting) = 1.00001
MULES: Correcting alpha.wetting
MULES: Correcting alpha.wetting
Phase-1 volume fraction = 0.138889  Min(alpha.wetting) = 0  Max(alpha.wetting) = 1.00001
GAMG:  Solving for p, Initial residual = 0.0200906, Final residual = 0.000688786, No Iterations 1
time step continuity errors : sum local = 1.57289e-05, global = 7.56044e-09, cumulative = -1.56921e-05
GAMG:  Solving for p, Initial residual = 0.00104702, Final residual = 5.65675e-05, No Iterations 2
time step continuity errors : sum local = 1.29007e-06, global = 1.57722e-09, cumulative = -1.56905e-05
GAMG:  Solving for p, Initial residual = 0.000220507, Final residual = 5.09175e-07, No Iterations 5
time step continuity errors : sum local = 1.1657e-08, global = 1.01226e-09, cumulative = -1.56895e-05
ExecutionTime = 12.84 s  ClockTime = 13 s

Courant Number mean: 0.00579728 max: 0.931649
Interface Courant Number mean: 0.000809792 max: 0.915386
deltaT = 0.00431679
Time = 0.0384772

PIMPLE: Iteration 1
smoothSolver:  Solving for alpha.wetting, Initial residual = 0.00017965, Final residual = 1.23874e-09, No Iterations 2
Phase-1 volume fraction = 0.138889  Min(alpha.wetting) = 0  Max(alpha.wetting) = 1.00001
MULES: Correcting alpha.wetting
MULES: Correcting alpha.wetting
Phase-1 volume fraction = 0.138889  Min(alpha.wetting) = 0  Max(alpha.wetting) = 1.00001
smoothSolver:  Solving for alpha.wetting, Initial residual = 0.000178697, Final residual = 1.15946e-09, No Iterations 2
Phase-1 volume fraction = 0.138889  Min(alpha.wetting) = 0  Max(alpha.wetting) = 1.00001
MULES: Correcting alpha.wetting
MULES: Correcting alpha.wetting
Phase-1 volume fraction = 0.138889  Min(alpha.wetting) = 0  Max(alpha.wetting) = 1.00001
GAMG:  Solving for p, Initial residual = 0.0307273, Final residual = 0.00142741, No Iterations 1
time step continuity errors : sum local = 3.68473e-05, global = -1.52321e-09, cumulative = -1.5691e-05
GAMG:  Solving for p, Initial residual = 0.00208204, Final residual = 7.11196e-05, No Iterations 2
time step continuity errors : sum local = 1.79675e-06, global = -1.32824e-09, cumulative = -1.56923e-05
GAMG:  Solving for p, Initial residual = 0.000429424, Final residual = 8.0851e-07, No Iterations 5
time step continuity errors : sum local = 2.08393e-08, global = -1.30396e-09, cumulative = -1.56936e-05
PIMPLE: Iteration 2
smoothSolver:  Solving for alpha.wetting, Initial residual = 0.00019737, Final residual = 1.58972e-09, No Iterations 2
Phase-1 volume fraction = 0.138889  Min(alpha.wetting) = 0  Max(alpha.wetting) = 1.00001
MULES: Correcting alpha.wetting
MULES: Correcting alpha.wetting
Phase-1 volume fraction = 0.138889  Min(alpha.wetting) = 0  Max(alpha.wetting) = 1.00001
smoothSolver:  Solving for alpha.wetting, Initial residual = 0.000183784, Final residual = 1.1909e-09, No Iterations 2
Phase-1 volume fraction = 0.138889  Min(alpha.wetting) = 0  Max(alpha.wetting) = 1.00002
MULES: Correcting alpha.wetting
MULES: Correcting alpha.wetting
Phase-1 volume fraction = 0.138889  Min(alpha.wetting) = 0  Max(alpha.wetting) = 1.00002
GAMG:  Solving for p, Initial residual = 0.0289273, Final residual = 0.000635717, No Iterations 1
time step continuity errors : sum local = 1.67819e-05, global = 1.18154e-09, cumulative = -1.56925e-05
GAMG:  Solving for p, Initial residual = 0.000868329, Final residual = 4.83894e-05, No Iterations 2
time step continuity errors : sum local = 1.28546e-06, global = -1.01162e-09, cumulative = -1.56935e-05
GAMG:  Solving for p, Initial residual = 0.000170934, Final residual = 4.17445e-07, No Iterations 5
time step continuity errors : sum local = 1.10663e-08, global = -2.93968e-09, cumulative = -1.56964e-05
ExecutionTime = 14.18 s  ClockTime = 14 s

Courant Number mean: 0.00652026 max: 1.10063
Interface Courant Number mean: 0.000882287 max: 0.960966
deltaT = 0.00391709
Time = 0.0423943

PIMPLE: Iteration 1
smoothSolver:  Solving for alpha.wetting, Initial residual = 0.000168356, Final residual = 7.76089e-10, No Iterations 2
Phase-1 volume fraction = 0.138889  Min(alpha.wetting) = 0  Max(alpha.wetting) = 1.00002
MULES: Correcting alpha.wetting
MULES: Correcting alpha.wetting
Phase-1 volume fraction = 0.138889  Min(alpha.wetting) = 0  Max(alpha.wetting) = 1.00002
smoothSolver:  Solving for alpha.wetting, Initial residual = 0.000167417, Final residual = 7.40528e-10, No Iterations 2
Phase-1 volume fraction = 0.138889  Min(alpha.wetting) = 0  Max(alpha.wetting) = 1.00002
MULES: Correcting alpha.wetting
MULES: Correcting alpha.wetting
Phase-1 volume fraction = 0.138889  Min(alpha.wetting) = 0  Max(alpha.wetting) = 1.00002
GAMG:  Solving for p, Initial residual = 0.0195291, Final residual = 0.00109008, No Iterations 1
time step continuity errors : sum local = 2.45376e-05, global = -5.68554e-09, cumulative = -1.57021e-05
GAMG:  Solving for p, Initial residual = 0.00162265, Final residual = 6.61571e-05, No Iterations 2
time step continuity errors : sum local = 1.47937e-06, global = -5.84545e-09, cumulative = -1.57079e-05
GAMG:  Solving for p, Initial residual = 0.000284511, Final residual = 8.16849e-07, No Iterations 5
time step continuity errors : sum local = 1.82711e-08, global = -2.83605e-09, cumulative = -1.57108e-05
PIMPLE: Iteration 2
smoothSolver:  Solving for alpha.wetting, Initial residual = 0.000177539, Final residual = 9.03793e-10, No Iterations 2
Phase-1 volume fraction = 0.138889  Min(alpha.wetting) = 0  Max(alpha.wetting) = 1.00002
MULES: Correcting alpha.wetting
MULES: Correcting alpha.wetting
Phase-1 volume fraction = 0.138889  Min(alpha.wetting) = 0  Max(alpha.wetting) = 1.00002
smoothSolver:  Solving for alpha.wetting, Initial residual = 0.000170526, Final residual = 7.38982e-10, No Iterations 2
Phase-1 volume fraction = 0.138889  Min(alpha.wetting) = 0  Max(alpha.wetting) = 1.00002
MULES: Correcting alpha.wetting
MULES: Correcting alpha.wetting
Phase-1 volume fraction = 0.138889  Min(alpha.wetting) = 0  Max(alpha.wetting) = 1.00002
GAMG:  Solving for p, Initial residual = 0.0130953, Final residual = 0.000630566, No Iterations 1
time step continuity errors : sum local = 1.42697e-05, global = 3.74467e-09, cumulative = -1.5707e-05
GAMG:  Solving for p, Initial residual = 0.000783466, Final residual = 2.6347e-05, No Iterations 2
time step continuity errors : sum local = 6.07882e-07, global = -5.23475e-10, cumulative = -1.57076e-05
GAMG:  Solving for p, Initial residual = 0.000179454, Final residual = 4.8145e-07, No Iterations 4
time step continuity errors : sum local = 1.06674e-08, global = 2.60119e-09, cumulative = -1.5705e-05
ExecutionTime = 15.49 s  ClockTime = 16 s

Courant Number mean: 0.00620067 max: 0.993425
Interface Courant Number mean: 0.000835306 max: 0.896745
deltaT = 0.00391709
Time = 0.0463114

PIMPLE: Iteration 1
smoothSolver:  Solving for alpha.wetting, Initial residual = 0.00017205, Final residual = 7.29985e-10, No Iterations 2
Phase-1 volume fraction = 0.138889  Min(alpha.wetting) = 0  Max(alpha.wetting) = 1.00002
MULES: Correcting alpha.wetting
MULES: Correcting alpha.wetting
Phase-1 volume fraction = 0.138889  Min(alpha.wetting) = 0  Max(alpha.wetting) = 1.00002
smoothSolver:  Solving for alpha.wetting, Initial residual = 0.000171165, Final residual = 7.02368e-10, No Iterations 2
Phase-1 volume fraction = 0.138889  Min(alpha.wetting) = 0  Max(alpha.wetting) = 1.00001
MULES: Correcting alpha.wetting
MULES: Correcting alpha.wetting
Phase-1 volume fraction = 0.138889  Min(alpha.wetting) = 0  Max(alpha.wetting) = 1.00001
GAMG:  Solving for p, Initial residual = 0.063152, Final residual = 0.00105939, No Iterations 1
time step continuity errors : sum local = 2.33622e-05, global = 9.81584e-09, cumulative = -1.56951e-05
GAMG:  Solving for p, Initial residual = 0.00153646, Final residual = 3.967e-05, No Iterations 2
time step continuity errors : sum local = 8.95941e-07, global = 6.25225e-09, cumulative = -1.56889e-05
GAMG:  Solving for p, Initial residual = 0.000249965, Final residual = 8.70792e-07, No Iterations 4
time step continuity errors : sum local = 2.04685e-08, global = -7.09582e-10, cumulative = -1.56896e-05
PIMPLE: Iteration 2
smoothSolver:  Solving for alpha.wetting, Initial residual = 0.000181925, Final residual = 8.61119e-10, No Iterations 2
Phase-1 volume fraction = 0.138889  Min(alpha.wetting) = 0  Max(alpha.wetting) = 1.00003
MULES: Correcting alpha.wetting
MULES: Correcting alpha.wetting
Phase-1 volume fraction = 0.138889  Min(alpha.wetting) = 0  Max(alpha.wetting) = 1.00003
smoothSolver:  Solving for alpha.wetting, Initial residual = 0.000175389, Final residual = 7.10499e-10, No Iterations 2
Phase-1 volume fraction = 0.138889  Min(alpha.wetting) = 0  Max(alpha.wetting) = 1.00003
MULES: Correcting alpha.wetting
MULES: Correcting alpha.wetting
Phase-1 volume fraction = 0.138889  Min(alpha.wetting) = 0  Max(alpha.wetting) = 1.00003
GAMG:  Solving for p, Initial residual = 0.0550855, Final residual = 0.000642766, No Iterations 1
time step continuity errors : sum local = 1.52186e-05, global = -9.73784e-09, cumulative = -1.56993e-05
GAMG:  Solving for p, Initial residual = 0.000888867, Final residual = 2.86856e-05, No Iterations 2
time step continuity errors : sum local = 6.61535e-07, global = -2.82246e-10, cumulative = -1.56996e-05
GAMG:  Solving for p, Initial residual = 0.000182887, Final residual = 9.17012e-07, No Iterations 4
time step continuity errors : sum local = 1.97618e-08, global = 6.21605e-09, cumulative = -1.56934e-05
ExecutionTime = 16.8 s  ClockTime = 17 s

Courant Number mean: 0.00648167 max: 0.852917
Interface Courant Number mean: 0.000851811 max: 0.784879
deltaT = 0.0043338
Time = 0.0506452

PIMPLE: Iteration 1
smoothSolver:  Solving for alpha.wetting, Initial residual = 0.000194242, Final residual = 1.08973e-09, No Iterations 2
Phase-1 volume fraction = 0.138889  Min(alpha.wetting) = 0  Max(alpha.wetting) = 1.00003
MULES: Correcting alpha.wetting
MULES: Correcting alpha.wetting
Phase-1 volume fraction = 0.138889  Min(alpha.wetting) = 0  Max(alpha.wetting) = 1.00003
smoothSolver:  Solving for alpha.wetting, Initial residual = 0.000193663, Final residual = 1.05693e-09, No Iterations 2
Phase-1 volume fraction = 0.138889  Min(alpha.wetting) = 0  Max(alpha.wetting) = 1.00003
MULES: Correcting alpha.wetting
MULES: Correcting alpha.wetting
Phase-1 volume fraction = 0.138889  Min(alpha.wetting) = 0  Max(alpha.wetting) = 1.00003
GAMG:  Solving for p, Initial residual = 0.0787151, Final residual = 0.00117768, No Iterations 1
time step continuity errors : sum local = 3.02068e-05, global = 1.76946e-08, cumulative = -1.56757e-05
GAMG:  Solving for p, Initial residual = 0.00161096, Final residual = 5.23518e-05, No Iterations 2
time step continuity errors : sum local = 1.39114e-06, global = 9.73701e-09, cumulative = -1.5666e-05
GAMG:  Solving for p, Initial residual = 0.000279406, Final residual = 6.71807e-07, No Iterations 5
time step continuity errors : sum local = 1.85335e-08, global = -1.48719e-09, cumulative = -1.56675e-05
PIMPLE: Iteration 2
smoothSolver:  Solving for alpha.wetting, Initial residual = 0.000207018, Final residual = 1.2109e-09, No Iterations 2
Phase-1 volume fraction = 0.138889  Min(alpha.wetting) = 0  Max(alpha.wetting) = 1.00003
MULES: Correcting alpha.wetting
MULES: Correcting alpha.wetting
Phase-1 volume fraction = 0.138889  Min(alpha.wetting) = 0  Max(alpha.wetting) = 1.00003
smoothSolver:  Solving for alpha.wetting, Initial residual = 0.000198336, Final residual = 1.04093e-09, No Iterations 2
Phase-1 volume fraction = 0.138889  Min(alpha.wetting) = 0  Max(alpha.wetting) = 1.00004
MULES: Correcting alpha.wetting
MULES: Correcting alpha.wetting
Phase-1 volume fraction = 0.138889  Min(alpha.wetting) = 0  Max(alpha.wetting) = 1.00004
GAMG:  Solving for p, Initial residual = 0.0650346, Final residual = 0.00056696, No Iterations 1
time step continuity errors : sum local = 1.55671e-05, global = -8.22769e-09, cumulative = -1.56757e-05
GAMG:  Solving for p, Initial residual = 0.000736453, Final residual = 3.23455e-05, No Iterations 2
time step continuity errors : sum local = 8.55265e-07, global = -9.9189e-10, cumulative = -1.56767e-05
GAMG:  Solving for p, Initial residual = 0.000120824, Final residual = 7.56269e-07, No Iterations 4
time step continuity errors : sum local = 2.01398e-08, global = 2.35781e-09, cumulative = -1.56743e-05
ExecutionTime = 18.12 s  ClockTime = 18 s

Courant Number mean: 0.00752705 max: 0.851995
Interface Courant Number mean: 0.000938541 max: 0.851014
deltaT = 0.00474654
Time = 0.0553918

PIMPLE: Iteration 1
smoothSolver:  Solving for alpha.wetting, Initial residual = 0.000220244, Final residual = 1.61212e-09, No Iterations 2
Phase-1 volume fraction = 0.138889  Min(alpha.wetting) = 0  Max(alpha.wetting) = 1.00004
MULES: Correcting alpha.wetting
MULES: Correcting alpha.wetting
Phase-1 volume fraction = 0.138889  Min(alpha.wetting) = 0  Max(alpha.wetting) = 1.00004
smoothSolver:  Solving for alpha.wetting, Initial residual = 0.00021987, Final residual = 1.578e-09, No Iterations 2
Phase-1 volume fraction = 0.138889  Min(alpha.wetting) = 0  Max(alpha.wetting) = 1.00005
MULES: Correcting alpha.wetting
MULES: Correcting alpha.wetting
Phase-1 volume fraction = 0.138889  Min(alpha.wetting) = 0  Max(alpha.wetting) = 1.00005
GAMG:  Solving for p, Initial residual = 0.0267397, Final residual = 0.000935695, No Iterations 1
time step continuity errors : sum local = 2.97136e-05, global = -1.07246e-09, cumulative = -1.56754e-05
GAMG:  Solving for p, Initial residual = 0.00141805, Final residual = 6.53387e-05, No Iterations 2
time step continuity errors : sum local = 2.0717e-06, global = -2.6914e-09, cumulative = -1.56781e-05
GAMG:  Solving for p, Initial residual = 0.000281021, Final residual = 5.63921e-07, No Iterations 6
time step continuity errors : sum local = 1.78358e-08, global = 2.88975e-11, cumulative = -1.56781e-05
PIMPLE: Iteration 2
smoothSolver:  Solving for alpha.wetting, Initial residual = 0.000237264, Final residual = 1.74041e-09, No Iterations 2
Phase-1 volume fraction = 0.138889  Min(alpha.wetting) = 0  Max(alpha.wetting) = 1.00004
MULES: Correcting alpha.wetting
MULES: Correcting alpha.wetting
Phase-1 volume fraction = 0.138889  Min(alpha.wetting) = 0  Max(alpha.wetting) = 1.00004
smoothSolver:  Solving for alpha.wetting, Initial residual = 0.000224835, Final residual = 1.56751e-09, No Iterations 2
Phase-1 volume fraction = 0.138889  Min(alpha.wetting) = 0  Max(alpha.wetting) = 1.00004
MULES: Correcting alpha.wetting
MULES: Correcting alpha.wetting
Phase-1 volume fraction = 0.138889  Min(alpha.wetting) = 0  Max(alpha.wetting) = 1.00004
GAMG:  Solving for p, Initial residual = 0.0164953, Final residual = 0.000433821, No Iterations 1
time step continuity errors : sum local = 1.37914e-05, global = 4.00853e-09, cumulative = -1.5674e-05
GAMG:  Solving for p, Initial residual = 0.000682875, Final residual = 2.09908e-05, No Iterations 2
time step continuity errors : sum local = 6.48685e-07, global = 3.02397e-09, cumulative = -1.5671e-05
GAMG:  Solving for p, Initial residual = 0.000150378, Final residual = 6.86948e-07, No Iterations 4
time step continuity errors : sum local = 1.99422e-08, global = 8.79911e-09, cumulative = -1.56622e-05
ExecutionTime = 19.44 s  ClockTime = 20 s

Courant Number mean: 0.00860915 max: 0.837891
Interface Courant Number mean: 0.00102169 max: 0.807363
deltaT = 0.00525968
Time = 0.0606514

PIMPLE: Iteration 1
smoothSolver:  Solving for alpha.wetting, Initial residual = 0.000249583, Final residual = 2.46789e-09, No Iterations 2
Phase-1 volume fraction = 0.138889  Min(alpha.wetting) = 0  Max(alpha.wetting) = 1.00002
MULES: Correcting alpha.wetting
MULES: Correcting alpha.wetting
Phase-1 volume fraction = 0.138889  Min(alpha.wetting) = 0  Max(alpha.wetting) = 1.00002
smoothSolver:  Solving for alpha.wetting, Initial residual = 0.000248736, Final residual = 2.42959e-09, No Iterations 2
Phase-1 volume fraction = 0.138889  Min(alpha.wetting) = 0  Max(alpha.wetting) = 1.00003
MULES: Correcting alpha.wetting
MULES: Correcting alpha.wetting
Phase-1 volume fraction = 0.138889  Min(alpha.wetting) = 0  Max(alpha.wetting) = 1.00003
GAMG:  Solving for p, Initial residual = 0.0752762, Final residual = 0.00125054, No Iterations 1
time step continuity errors : sum local = 4.22258e-05, global = 2.13762e-08, cumulative = -1.56408e-05
GAMG:  Solving for p, Initial residual = 0.0017856, Final residual = 7.54823e-05, No Iterations 2
time step continuity errors : sum local = 2.52212e-06, global = 1.59451e-08, cumulative = -1.56249e-05
GAMG:  Solving for p, Initial residual = 0.000352865, Final residual = 9.87523e-07, No Iterations 5
time step continuity errors : sum local = 3.42111e-08, global = 1.15058e-08, cumulative = -1.56134e-05
PIMPLE: Iteration 2
smoothSolver:  Solving for alpha.wetting, Initial residual = 0.000270848, Final residual = 2.42535e-09, No Iterations 2
Phase-1 volume fraction = 0.138889  Min(alpha.wetting) = 0  Max(alpha.wetting) = 1.00004
MULES: Correcting alpha.wetting
MULES: Correcting alpha.wetting
Phase-1 volume fraction = 0.138889  Min(alpha.wetting) = 0  Max(alpha.wetting) = 1.00004
smoothSolver:  Solving for alpha.wetting, Initial residual = 0.000254954, Final residual = 2.40642e-09, No Iterations 2
Phase-1 volume fraction = 0.138889  Min(alpha.wetting) = 0  Max(alpha.wetting) = 1.00004
MULES: Correcting alpha.wetting
MULES: Correcting alpha.wetting
Phase-1 volume fraction = 0.138889  Min(alpha.wetting) = 0  Max(alpha.wetting) = 1.00004
GAMG:  Solving for p, Initial residual = 0.0574527, Final residual = 0.000652063, No Iterations 1
time step continuity errors : sum local = 2.32803e-05, global = 1.84094e-08, cumulative = -1.5595e-05
GAMG:  Solving for p, Initial residual = 0.000929598, Final residual = 4.07282e-05, No Iterations 2
time step continuity errors : sum local = 1.45867e-06, global = 6.28781e-09, cumulative = -1.55887e-05
GAMG:  Solving for p, Initial residual = 0.000193993, Final residual = 8.27364e-07, No Iterations 5
time step continuity errors : sum local = 2.82999e-08, global = -3.9634e-09, cumulative = -1.55927e-05
ExecutionTime = 20.75 s  ClockTime = 21 s

Courant Number mean: 0.00999462 max: 0.935259
Interface Courant Number mean: 0.00119335 max: 0.864152
deltaT = 0.00556908
Time = 0.0662205

PIMPLE: Iteration 1
smoothSolver:  Solving for alpha.wetting, Initial residual = 0.000273633, Final residual = 3.0849e-09, No Iterations 2
Phase-1 volume fraction = 0.138889  Min(alpha.wetting) = 0  Max(alpha.wetting) = 1.00004
MULES: Correcting alpha.wetting
MULES: Correcting alpha.wetting
Phase-1 volume fraction = 0.138889  Min(alpha.wetting) = 0  Max(alpha.wetting) = 1.00004
smoothSolver:  Solving for alpha.wetting, Initial residual = 0.000272482, Final residual = 3.04693e-09, No Iterations 2
Phase-1 volume fraction = 0.138889  Min(alpha.wetting) = 0  Max(alpha.wetting) = 1.00004
MULES: Correcting alpha.wetting
MULES: Correcting alpha.wetting
Phase-1 volume fraction = 0.138889  Min(alpha.wetting) = 0  Max(alpha.wetting) = 1.00004
GAMG:  Solving for p, Initial residual = 0.0292674, Final residual = 0.00110705, No Iterations 1
time step continuity errors : sum local = 4.04998e-05, global = 5.15247e-09, cumulative = -1.55875e-05
GAMG:  Solving for p, Initial residual = 0.00175083, Final residual = 6.45365e-05, No Iterations 2
time step continuity errors : sum local = 2.34738e-06, global = -2.46536e-08, cumulative = -1.56122e-05
GAMG:  Solving for p, Initial residual = 0.000333133, Final residual = 7.69409e-07, No Iterations 5
time step continuity errors : sum local = 2.92373e-08, global = -9.08886e-09, cumulative = -1.56213e-05
PIMPLE: Iteration 2
smoothSolver:  Solving for alpha.wetting, Initial residual = 0.000294565, Final residual = 3.0842e-09, No Iterations 2
Phase-1 volume fraction = 0.138889  Min(alpha.wetting) = 0  Max(alpha.wetting) = 1.00004
MULES: Correcting alpha.wetting
MULES: Correcting alpha.wetting
Phase-1 volume fraction = 0.138889  Min(alpha.wetting) = 0  Max(alpha.wetting) = 1.00004
smoothSolver:  Solving for alpha.wetting, Initial residual = 0.000277971, Final residual = 3.17534e-09, No Iterations 2
Phase-1 volume fraction = 0.138889  Min(alpha.wetting) = 0  Max(alpha.wetting) = 1.00005
MULES: Correcting alpha.wetting
MULES: Correcting alpha.wetting
Phase-1 volume fraction = 0.138889  Min(alpha.wetting) = 0  Max(alpha.wetting) = 1.00005
GAMG:  Solving for p, Initial residual = 0.0163897, Final residual = 0.00046424, No Iterations 1
time step continuity errors : sum local = 1.82832e-05, global = -2.64364e-08, cumulative = -1.56477e-05
GAMG:  Solving for p, Initial residual = 0.000729789, Final residual = 2.96444e-05, No Iterations 2
time step continuity errors : sum local = 1.18002e-06, global = -4.49641e-09, cumulative = -1.56522e-05
GAMG:  Solving for p, Initial residual = 0.000175828, Final residual = 6.04797e-07, No Iterations 4
time step continuity errors : sum local = 2.31643e-08, global = 1.33567e-09, cumulative = -1.56509e-05
ExecutionTime = 22.05 s  ClockTime = 22 s

Courant Number mean: 0.0110545 max: 1.03433
Interface Courant Number mean: 0.0013309 max: 0.873246
deltaT = 0.00525084
Time = 0.0714714

PIMPLE: Iteration 1
smoothSolver:  Solving for alpha.wetting, Initial residual = 0.000265882, Final residual = 2.3264e-09, No Iterations 2
Phase-1 volume fraction = 0.138889  Min(alpha.wetting) = 0  Max(alpha.wetting) = 1.00003
MULES: Correcting alpha.wetting
MULES: Correcting alpha.wetting
Phase-1 volume fraction = 0.138889  Min(alpha.wetting) = 0  Max(alpha.wetting) = 1.00003
smoothSolver:  Solving for alpha.wetting, Initial residual = 0.000264244, Final residual = 2.30308e-09, No Iterations 2
Phase-1 volume fraction = 0.138889  Min(alpha.wetting) = 0  Max(alpha.wetting) = 1.00006
MULES: Correcting alpha.wetting
MULES: Correcting alpha.wetting
Phase-1 volume fraction = 0.138889  Min(alpha.wetting) = 0  Max(alpha.wetting) = 1.00006
GAMG:  Solving for p, Initial residual = 0.081693, Final residual = 0.00111891, No Iterations 1
time step continuity errors : sum local = 3.87349e-05, global = 7.9133e-09, cumulative = -1.56429e-05
GAMG:  Solving for p, Initial residual = 0.00163645, Final residual = 5.51917e-05, No Iterations 2
time step continuity errors : sum local = 1.93724e-06, global = 4.58371e-09, cumulative = -1.56384e-05
GAMG:  Solving for p, Initial residual = 0.000295297, Final residual = 7.50222e-07, No Iterations 5
time step continuity errors : sum local = 2.75203e-08, global = -1.57356e-09, cumulative = -1.56399e-05
PIMPLE: Iteration 2
smoothSolver:  Solving for alpha.wetting, Initial residual = 0.000284819, Final residual = 2.24666e-09, No Iterations 2
Phase-1 volume fraction = 0.138889  Min(alpha.wetting) = 0  Max(alpha.wetting) = 1.00005
MULES: Correcting alpha.wetting
MULES: Correcting alpha.wetting
Phase-1 volume fraction = 0.138889  Min(alpha.wetting) = 0  Max(alpha.wetting) = 1.00005
smoothSolver:  Solving for alpha.wetting, Initial residual = 0.000268564, Final residual = 2.21064e-09, No Iterations 2
Phase-1 volume fraction = 0.138889  Min(alpha.wetting) = 0  Max(alpha.wetting) = 1.00006
MULES: Correcting alpha.wetting
MULES: Correcting alpha.wetting
Phase-1 volume fraction = 0.138889  Min(alpha.wetting) = 0  Max(alpha.wetting) = 1.00006
GAMG:  Solving for p, Initial residual = 0.0681466, Final residual = 0.000600842, No Iterations 1
time step continuity errors : sum local = 2.22077e-05, global = 1.35543e-09, cumulative = -1.56386e-05
GAMG:  Solving for p, Initial residual = 0.00084889, Final residual = 2.62164e-05, No Iterations 2
time step continuity errors : sum local = 9.60374e-07, global = 7.82437e-11, cumulative = -1.56385e-05
GAMG:  Solving for p, Initial residual = 0.000158844, Final residual = 7.37056e-07, No Iterations 4
time step continuity errors : sum local = 2.63477e-08, global = 3.07188e-09, cumulative = -1.56354e-05
ExecutionTime = 23.39 s  ClockTime = 24 s

Courant Number mean: 0.0108166 max: 1.08292
Interface Courant Number mean: 0.00131317 max: 0.836295
deltaT = 0.0048251
Time = 0.0762965

PIMPLE: Iteration 1
smoothSolver:  Solving for alpha.wetting, Initial residual = 0.000248577, Final residual = 1.49926e-09, No Iterations 2
Phase-1 volume fraction = 0.138889  Min(alpha.wetting) = 0  Max(alpha.wetting) = 1.00005
MULES: Correcting alpha.wetting
MULES: Correcting alpha.wetting
Phase-1 volume fraction = 0.138889  Min(alpha.wetting) = 0  Max(alpha.wetting) = 1.00005
smoothSolver:  Solving for alpha.wetting, Initial residual = 0.000247465, Final residual = 1.49599e-09, No Iterations 2
Phase-1 volume fraction = 0.138889  Min(alpha.wetting) = 0  Max(alpha.wetting) = 1.00004
MULES: Correcting alpha.wetting
MULES: Correcting alpha.wetting
Phase-1 volume fraction = 0.138889  Min(alpha.wetting) = 0  Max(alpha.wetting) = 1.00004
GAMG:  Solving for p, Initial residual = 0.0990163, Final residual = 0.00124211, No Iterations 1
time step continuity errors : sum local = 4.11307e-05, global = 6.53446e-09, cumulative = -1.56289e-05
GAMG:  Solving for p, Initial residual = 0.00157255, Final residual = 6.8391e-05, No Iterations 2
time step continuity errors : sum local = 2.40717e-06, global = 3.41039e-09, cumulative = -1.56255e-05
GAMG:  Solving for p, Initial residual = 0.000254691, Final residual = 6.38171e-07, No Iterations 5
time step continuity errors : sum local = 2.27005e-08, global = 3.83178e-09, cumulative = -1.56216e-05
PIMPLE: Iteration 2
smoothSolver:  Solving for alpha.wetting, Initial residual = 0.000270884, Final residual = 1.4837e-09, No Iterations 2
Phase-1 volume fraction = 0.138889  Min(alpha.wetting) = 0  Max(alpha.wetting) = 1.00006
MULES: Correcting alpha.wetting
MULES: Correcting alpha.wetting
Phase-1 volume fraction = 0.138889  Min(alpha.wetting) = 0  Max(alpha.wetting) = 1.00006
smoothSolver:  Solving for alpha.wetting, Initial residual = 0.000252232, Final residual = 1.5096e-09, No Iterations 2
Phase-1 volume fraction = 0.138889  Min(alpha.wetting) = 0  Max(alpha.wetting) = 1.00006
MULES: Correcting alpha.wetting
MULES: Correcting alpha.wetting
Phase-1 volume fraction = 0.138889  Min(alpha.wetting) = 0  Max(alpha.wetting) = 1.00006
GAMG:  Solving for p, Initial residual = 0.0900967, Final residual = 0.000784899, No Iterations 1
time step continuity errors : sum local = 2.61972e-05, global = -7.57e-10, cumulative = -1.56224e-05
GAMG:  Solving for p, Initial residual = 0.0011287, Final residual = 2.59462e-05, No Iterations 2
time step continuity errors : sum local = 7.91342e-07, global = 6.45144e-09, cumulative = -1.5616e-05
GAMG:  Solving for p, Initial residual = 0.000188397, Final residual = 6.73799e-07, No Iterations 4
time step continuity errors : sum local = 1.90991e-08, global = 7.20901e-09, cumulative = -1.56087e-05
ExecutionTime = 24.7 s  ClockTime = 25 s

Courant Number mean: 0.0102474 max: 1.14917
Interface Courant Number mean: 0.00128378 max: 0.93329
deltaT = 0.0041358
Time = 0.0804323

PIMPLE: Iteration 1
smoothSolver:  Solving for alpha.wetting, Initial residual = 0.000216188, Final residual = 7.00744e-10, No Iterations 2
Phase-1 volume fraction = 0.138889  Min(alpha.wetting) = 0  Max(alpha.wetting) = 1.00005
MULES: Correcting alpha.wetting
MULES: Correcting alpha.wetting
Phase-1 volume fraction = 0.138889  Min(alpha.wetting) = 0  Max(alpha.wetting) = 1.00005
smoothSolver:  Solving for alpha.wetting, Initial residual = 0.000215292, Final residual = 7.01059e-10, No Iterations 2
Phase-1 volume fraction = 0.138889  Min(alpha.wetting) = 0  Max(alpha.wetting) = 1.00005
MULES: Correcting alpha.wetting
MULES: Correcting alpha.wetting
Phase-1 volume fraction = 0.138889  Min(alpha.wetting) = 0  Max(alpha.wetting) = 1.00005
GAMG:  Solving for p, Initial residual = 0.124818, Final residual = 0.00115224, No Iterations 1
time step continuity errors : sum local = 2.59889e-05, global = 1.00834e-08, cumulative = -1.55987e-05
GAMG:  Solving for p, Initial residual = 0.00156084, Final residual = 3.59461e-05, No Iterations 2
time step continuity errors : sum local = 8.71755e-07, global = 1.9437e-09, cumulative = -1.55967e-05
GAMG:  Solving for p, Initial residual = 0.000225833, Final residual = 9.26757e-07, No Iterations 4
time step continuity errors : sum local = 2.41091e-08, global = -5.65838e-09, cumulative = -1.56024e-05
PIMPLE: Iteration 2
smoothSolver:  Solving for alpha.wetting, Initial residual = 0.000234868, Final residual = 6.65557e-10, No Iterations 2
Phase-1 volume fraction = 0.138889  Min(alpha.wetting) = 0  Max(alpha.wetting) = 1.00007
MULES: Correcting alpha.wetting
MULES: Correcting alpha.wetting
Phase-1 volume fraction = 0.138889  Min(alpha.wetting) = 0  Max(alpha.wetting) = 1.00007
smoothSolver:  Solving for alpha.wetting, Initial residual = 0.000217198, Final residual = 6.77591e-10, No Iterations 2
Phase-1 volume fraction = 0.138889  Min(alpha.wetting) = 0  Max(alpha.wetting) = 1.00008
MULES: Correcting alpha.wetting
MULES: Correcting alpha.wetting
Phase-1 volume fraction = 0.138889  Min(alpha.wetting) = 0  Max(alpha.wetting) = 1.00008
GAMG:  Solving for p, Initial residual = 0.130462, Final residual = 0.000828565, No Iterations 1
time step continuity errors : sum local = 2.11428e-05, global = -1.5791e-08, cumulative = -1.56182e-05
GAMG:  Solving for p, Initial residual = 0.00112457, Final residual = 4.60591e-05, No Iterations 2
time step continuity errors : sum local = 1.10926e-06, global = -2.08746e-09, cumulative = -1.56203e-05
GAMG:  Solving for p, Initial residual = 0.000178011, Final residual = 7.2295e-07, No Iterations 5
time step continuity errors : sum local = 1.69031e-08, global = 4.92963e-09, cumulative = -1.56153e-05
ExecutionTime = 26 s  ClockTime = 26 s

Courant Number mean: 0.00898381 max: 1.04077
Interface Courant Number mean: 0.00112608 max: 1.01246
deltaT = 0.00394344
Time = 0.0843757

PIMPLE: Iteration 1
smoothSolver:  Solving for alpha.wetting, Initial residual = 0.000208474, Final residual = 5.37851e-10, No Iterations 2
Phase-1 volume fraction = 0.138889  Min(alpha.wetting) = 0  Max(alpha.wetting) = 1.00008
MULES: Correcting alpha.wetting
MULES: Correcting alpha.wetting
Phase-1 volume fraction = 0.138889  Min(alpha.wetting) = 0  Max(alpha.wetting) = 1.00008
smoothSolver:  Solving for alpha.wetting, Initial residual = 0.000207925, Final residual = 5.39998e-10, No Iterations 2
Phase-1 volume fraction = 0.138889  Min(alpha.wetting) = 0  Max(alpha.wetting) = 1.00008
MULES: Correcting alpha.wetting
MULES: Correcting alpha.wetting
Phase-1 volume fraction = 0.138889  Min(alpha.wetting) = 0  Max(alpha.wetting) = 1.00008
GAMG:  Solving for p, Initial residual = 0.0261124, Final residual = 0.000846838, No Iterations 1
time step continuity errors : sum local = 1.79406e-05, global = 1.84623e-08, cumulative = -1.55969e-05
GAMG:  Solving for p, Initial residual = 0.00137837, Final residual = 4.9555e-05, No Iterations 2
time step continuity errors : sum local = 1.0446e-06, global = 5.12621e-09, cumulative = -1.55917e-05
GAMG:  Solving for p, Initial residual = 0.000256578, Final residual = 7.72019e-07, No Iterations 4
time step continuity errors : sum local = 1.65103e-08, global = 1.31598e-09, cumulative = -1.55904e-05
PIMPLE: Iteration 2
smoothSolver:  Solving for alpha.wetting, Initial residual = 0.000225618, Final residual = 5.22274e-10, No Iterations 2
Phase-1 volume fraction = 0.138889  Min(alpha.wetting) = 0  Max(alpha.wetting) = 1.00009
MULES: Correcting alpha.wetting
MULES: Correcting alpha.wetting
Phase-1 volume fraction = 0.138889  Min(alpha.wetting) = 0  Max(alpha.wetting) = 1.00009
smoothSolver:  Solving for alpha.wetting, Initial residual = 0.000210378, Final residual = 5.45841e-10, No Iterations 2
Phase-1 volume fraction = 0.138889  Min(alpha.wetting) = 0  Max(alpha.wetting) = 1.00009
MULES: Correcting alpha.wetting
MULES: Correcting alpha.wetting
Phase-1 volume fraction = 0.138889  Min(alpha.wetting) = 0  Max(alpha.wetting) = 1.00009
GAMG:  Solving for p, Initial residual = 0.0494566, Final residual = 0.000569415, No Iterations 1
time step continuity errors : sum local = 1.25226e-05, global = -1.35434e-08, cumulative = -1.5604e-05
GAMG:  Solving for p, Initial residual = 0.000802361, Final residual = 3.49554e-05, No Iterations 2
time step continuity errors : sum local = 7.62045e-07, global = 9.57061e-09, cumulative = -1.55944e-05
GAMG:  Solving for p, Initial residual = 0.000155331, Final residual = 5.81094e-07, No Iterations 5
time step continuity errors : sum local = 1.21669e-08, global = 6.44315e-09, cumulative = -1.55879e-05
ExecutionTime = 27.32 s  ClockTime = 28 s

Courant Number mean: 0.00872205 max: 1.08549
Interface Courant Number mean: 0.00106111 max: 0.937705
deltaT = 0.00360053
Time = 0.0879762

PIMPLE: Iteration 1
smoothSolver:  Solving for alpha.wetting, Initial residual = 0.000192192, Final residual = 3.45226e-10, No Iterations 2
Phase-1 volume fraction = 0.138889  Min(alpha.wetting) = 0  Max(alpha.wetting) = 1.00009
MULES: Correcting alpha.wetting
MULES: Correcting alpha.wetting
Phase-1 volume fraction = 0.138889  Min(alpha.wetting) = 0  Max(alpha.wetting) = 1.00009
smoothSolver:  Solving for alpha.wetting, Initial residual = 0.000191929, Final residual = 3.4672e-10, No Iterations 2
Phase-1 volume fraction = 0.138889  Min(alpha.wetting) = 0  Max(alpha.wetting) = 1.00009
MULES: Correcting alpha.wetting
MULES: Correcting alpha.wetting
Phase-1 volume fraction = 0.138889  Min(alpha.wetting) = 0  Max(alpha.wetting) = 1.00009
GAMG:  Solving for p, Initial residual = 0.024603, Final residual = 0.000742958, No Iterations 1
time step continuity errors : sum local = 1.29617e-05, global = 7.50205e-09, cumulative = -1.55804e-05
GAMG:  Solving for p, Initial residual = 0.00126112, Final residual = 4.1031e-05, No Iterations 2
time step continuity errors : sum local = 7.27532e-07, global = 1.55859e-09, cumulative = -1.55789e-05
GAMG:  Solving for p, Initial residual = 0.000226611, Final residual = 7.38014e-07, No Iterations 4
time step continuity errors : sum local = 1.36832e-08, global = -3.50558e-09, cumulative = -1.55824e-05
PIMPLE: Iteration 2
smoothSolver:  Solving for alpha.wetting, Initial residual = 0.000209253, Final residual = 3.23952e-10, No Iterations 2
Phase-1 volume fraction = 0.138889  Min(alpha.wetting) = 0  Max(alpha.wetting) = 1.0001
MULES: Correcting alpha.wetting
MULES: Correcting alpha.wetting
Phase-1 volume fraction = 0.138889  Min(alpha.wetting) = 0  Max(alpha.wetting) = 1.0001
smoothSolver:  Solving for alpha.wetting, Initial residual = 0.000193922, Final residual = 3.45116e-10, No Iterations 2
Phase-1 volume fraction = 0.138889  Min(alpha.wetting) = 0  Max(alpha.wetting) = 1.00011
MULES: Correcting alpha.wetting
MULES: Correcting alpha.wetting
Phase-1 volume fraction = 0.138889  Min(alpha.wetting) = 0  Max(alpha.wetting) = 1.00011
GAMG:  Solving for p, Initial residual = 0.0376591, Final residual = 0.000401522, No Iterations 1
time step continuity errors : sum local = 7.74742e-06, global = -1.13103e-08, cumulative = -1.55937e-05
GAMG:  Solving for p, Initial residual = 0.000598604, Final residual = 4.07101e-05, No Iterations 2
time step continuity errors : sum local = 7.81898e-07, global = -1.81273e-09, cumulative = -1.55955e-05
GAMG:  Solving for p, Initial residual = 0.00011515, Final residual = 6.75313e-07, No Iterations 5
time step continuity errors : sum local = 1.29166e-08, global = 4.44176e-09, cumulative = -1.55911e-05
ExecutionTime = 28.63 s  ClockTime = 29 s

Courant Number mean: 0.00807932 max: 0.858084
Interface Courant Number mean: 0.000987776 max: 0.778323
deltaT = 0.0039518
Time = 0.091928

PIMPLE: Iteration 1
smoothSolver:  Solving for alpha.wetting, Initial residual = 0.000214255, Final residual = 5.36411e-10, No Iterations 2
Phase-1 volume fraction = 0.138889  Min(alpha.wetting) = 0  Max(alpha.wetting) = 1.00011
MULES: Correcting alpha.wetting
MULES: Correcting alpha.wetting
Phase-1 volume fraction = 0.138889  Min(alpha.wetting) = 0  Max(alpha.wetting) = 1.00011
smoothSolver:  Solving for alpha.wetting, Initial residual = 0.000213931, Final residual = 5.39278e-10, No Iterations 2
Phase-1 volume fraction = 0.138889  Min(alpha.wetting) = 0  Max(alpha.wetting) = 1.00011
MULES: Correcting alpha.wetting
MULES: Correcting alpha.wetting
Phase-1 volume fraction = 0.138889  Min(alpha.wetting) = 0  Max(alpha.wetting) = 1.00011
GAMG:  Solving for p, Initial residual = 0.0171817, Final residual = 0.000597193, No Iterations 1
time step continuity errors : sum local = 1.35049e-05, global = 8.816e-09, cumulative = -1.55823e-05
GAMG:  Solving for p, Initial residual = 0.000919506, Final residual = 3.84222e-05, No Iterations 2
time step continuity errors : sum local = 8.62819e-07, global = 5.28767e-09, cumulative = -1.5577e-05
GAMG:  Solving for p, Initial residual = 0.000162812, Final residual = 4.53484e-07, No Iterations 4
time step continuity errors : sum local = 1.01862e-08, global = 3.69299e-09, cumulative = -1.55733e-05
PIMPLE: Iteration 2
smoothSolver:  Solving for alpha.wetting, Initial residual = 0.000233182, Final residual = 4.91975e-10, No Iterations 2
Phase-1 volume fraction = 0.138889  Min(alpha.wetting) = 0  Max(alpha.wetting) = 1.00012
MULES: Correcting alpha.wetting
MULES: Correcting alpha.wetting
Phase-1 volume fraction = 0.138889  Min(alpha.wetting) = 0  Max(alpha.wetting) = 1.00012
smoothSolver:  Solving for alpha.wetting, Initial residual = 0.000216635, Final residual = 5.27466e-10, No Iterations 2
Phase-1 volume fraction = 0.138889  Min(alpha.wetting) = 0  Max(alpha.wetting) = 1.00012
MULES: Correcting alpha.wetting
MULES: Correcting alpha.wetting
Phase-1 volume fraction = 0.138889  Min(alpha.wetting) = 0  Max(alpha.wetting) = 1.00012
GAMG:  Solving for p, Initial residual = 0.0212739, Final residual = 0.00040397, No Iterations 1
time step continuity errors : sum local = 9.22064e-06, global = -5.21105e-10, cumulative = -1.55738e-05
GAMG:  Solving for p, Initial residual = 0.000493065, Final residual = 1.68242e-05, No Iterations 2
time step continuity errors : sum local = 3.83765e-07, global = 5.25818e-09, cumulative = -1.55685e-05
GAMG:  Solving for p, Initial residual = 7.96439e-05, Final residual = 6.59458e-07, No Iterations 3
time step continuity errors : sum local = 1.46853e-08, global = 4.19669e-09, cumulative = -1.55643e-05
ExecutionTime = 29.92 s  ClockTime = 30 s

Courant Number mean: 0.00903118 max: 0.873909
Interface Courant Number mean: 0.00109686 max: 0.816117
deltaT = 0.00439089
Time = 0.0963189

PIMPLE: Iteration 1
smoothSolver:  Solving for alpha.wetting, Initial residual = 0.000240872, Final residual = 8.61973e-10, No Iterations 2
Phase-1 volume fraction = 0.138889  Min(alpha.wetting) = 0  Max(alpha.wetting) = 1.0001
MULES: Correcting alpha.wetting
MULES: Correcting alpha.wetting
Phase-1 volume fraction = 0.138889  Min(alpha.wetting) = 0  Max(alpha.wetting) = 1.0001
smoothSolver:  Solving for alpha.wetting, Initial residual = 0.000240379, Final residual = 8.65935e-10, No Iterations 2
Phase-1 volume fraction = 0.138889  Min(alpha.wetting) = 0  Max(alpha.wetting) = 1.00013
MULES: Correcting alpha.wetting
MULES: Correcting alpha.wetting
Phase-1 volume fraction = 0.138889  Min(alpha.wetting) = 0  Max(alpha.wetting) = 1.00013
GAMG:  Solving for p, Initial residual = 0.149998, Final residual = 0.00102709, No Iterations 1
time step continuity errors : sum local = 3.0418e-05, global = 5.42929e-09, cumulative = -1.55589e-05
GAMG:  Solving for p, Initial residual = 0.00124708, Final residual = 6.56426e-05, No Iterations 2
time step continuity errors : sum local = 2.0676e-06, global = 1.60139e-08, cumulative = -1.55429e-05
GAMG:  Solving for p, Initial residual = 0.000202912, Final residual = 6.21338e-07, No Iterations 5
time step continuity errors : sum local = 2.00617e-08, global = 1.04268e-08, cumulative = -1.55325e-05
PIMPLE: Iteration 2
smoothSolver:  Solving for alpha.wetting, Initial residual = 0.00026141, Final residual = 7.85352e-10, No Iterations 2
Phase-1 volume fraction = 0.138889  Min(alpha.wetting) = 0  Max(alpha.wetting) = 1.00012
MULES: Correcting alpha.wetting
MULES: Correcting alpha.wetting
Phase-1 volume fraction = 0.138889  Min(alpha.wetting) = 0  Max(alpha.wetting) = 1.00012
smoothSolver:  Solving for alpha.wetting, Initial residual = 0.000242565, Final residual = 8.35002e-10, No Iterations 2
Phase-1 volume fraction = 0.138889  Min(alpha.wetting) = 0  Max(alpha.wetting) = 1.00012
MULES: Correcting alpha.wetting
MULES: Correcting alpha.wetting
Phase-1 volume fraction = 0.138889  Min(alpha.wetting) = 0  Max(alpha.wetting) = 1.00012
GAMG:  Solving for p, Initial residual = 0.141545, Final residual = 0.00073481, No Iterations 1
time step continuity errors : sum local = 2.21579e-05, global = 9.94976e-09, cumulative = -1.55225e-05
GAMG:  Solving for p, Initial residual = 0.000979867, Final residual = 4.93636e-05, No Iterations 2
time step continuity errors : sum local = 1.38127e-06, global = -6.30312e-09, cumulative = -1.55288e-05
GAMG:  Solving for p, Initial residual = 0.000161152, Final residual = 6.98367e-07, No Iterations 5
time step continuity errors : sum local = 1.86012e-08, global = -8.008e-09, cumulative = -1.55368e-05
ExecutionTime = 31.28 s  ClockTime = 31 s

Courant Number mean: 0.0102442 max: 0.913426
Interface Courant Number mean: 0.00121203 max: 0.634299
deltaT = 0.00480253
Time = 0.101121

PIMPLE: Iteration 1
smoothSolver:  Solving for alpha.wetting, Initial residual = 0.000265438, Final residual = 1.26764e-09, No Iterations 2
Phase-1 volume fraction = 0.138889  Min(alpha.wetting) = 0  Max(alpha.wetting) = 1.00012
MULES: Correcting alpha.wetting
MULES: Correcting alpha.wetting
Phase-1 volume fraction = 0.138889  Min(alpha.wetting) = 0  Max(alpha.wetting) = 1.00012
smoothSolver:  Solving for alpha.wetting, Initial residual = 0.000264559, Final residual = 1.27547e-09, No Iterations 2
Phase-1 volume fraction = 0.138889  Min(alpha.wetting) = 0  Max(alpha.wetting) = 1.00012
MULES: Correcting alpha.wetting
MULES: Correcting alpha.wetting
Phase-1 volume fraction = 0.138889  Min(alpha.wetting) = 0  Max(alpha.wetting) = 1.00012
GAMG:  Solving for p, Initial residual = 0.0149369, Final residual = 0.00067648, No Iterations 1
time step continuity errors : sum local = 2.07106e-05, global = 2.893e-08, cumulative = -1.55079e-05
GAMG:  Solving for p, Initial residual = 0.00102203, Final residual = 3.86008e-05, No Iterations 2
time step continuity errors : sum local = 1.18086e-06, global = -2.24127e-08, cumulative = -1.55303e-05
GAMG:  Solving for p, Initial residual = 0.000189381, Final residual = 7.22851e-07, No Iterations 4
time step continuity errors : sum local = 2.27608e-08, global = -5.51856e-09, cumulative = -1.55358e-05
PIMPLE: Iteration 2
smoothSolver:  Solving for alpha.wetting, Initial residual = 0.000288234, Final residual = 1.17803e-09, No Iterations 2
Phase-1 volume fraction = 0.138889  Min(alpha.wetting) = 0  Max(alpha.wetting) = 1.00013
MULES: Correcting alpha.wetting
MULES: Correcting alpha.wetting
Phase-1 volume fraction = 0.138889  Min(alpha.wetting) = 0  Max(alpha.wetting) = 1.00013
smoothSolver:  Solving for alpha.wetting, Initial residual = 0.000267347, Final residual = 1.23079e-09, No Iterations 2
Phase-1 volume fraction = 0.138889  Min(alpha.wetting) = 0  Max(alpha.wetting) = 1.00014
MULES: Correcting alpha.wetting
MULES: Correcting alpha.wetting
Phase-1 volume fraction = 0.138889  Min(alpha.wetting) = 0  Max(alpha.wetting) = 1.00014
GAMG:  Solving for p, Initial residual = 0.0412885, Final residual = 0.000500122, No Iterations 1
time step continuity errors : sum local = 1.62035e-05, global = -5.39702e-08, cumulative = -1.55898e-05
GAMG:  Solving for p, Initial residual = 0.000621713, Final residual = 2.34348e-05, No Iterations 2
time step continuity errors : sum local = 7.50318e-07, global = 5.13054e-09, cumulative = -1.55847e-05
GAMG:  Solving for p, Initial residual = 0.000100559, Final residual = 9.29422e-07, No Iterations 4
time step continuity errors : sum local = 2.93311e-08, global = 7.9794e-09, cumulative = -1.55767e-05
ExecutionTime = 32.57 s  ClockTime = 33 s

Courant Number mean: 0.0114483 max: 1.02077
Interface Courant Number mean: 0.00137392 max: 0.691257
deltaT = 0.00465246
Time = 0.105774

PIMPLE: Iteration 1
smoothSolver:  Solving for alpha.wetting, Initial residual = 0.000260268, Final residual = 1.07235e-09, No Iterations 2
Phase-1 volume fraction = 0.138889  Min(alpha.wetting) = 0  Max(alpha.wetting) = 1.00014
MULES: Correcting alpha.wetting
MULES: Correcting alpha.wetting
Phase-1 volume fraction = 0.138889  Min(alpha.wetting) = 0  Max(alpha.wetting) = 1.00014
smoothSolver:  Solving for alpha.wetting, Initial residual = 0.000259657, Final residual = 1.08193e-09, No Iterations 2
Phase-1 volume fraction = 0.138889  Min(alpha.wetting) = 0  Max(alpha.wetting) = 1.00014
MULES: Correcting alpha.wetting
MULES: Correcting alpha.wetting
Phase-1 volume fraction = 0.138889  Min(alpha.wetting) = 0  Max(alpha.wetting) = 1.00014
GAMG:  Solving for p, Initial residual = 0.0379452, Final residual = 0.000751273, No Iterations 1
time step continuity errors : sum local = 2.27086e-05, global = 2.66774e-08, cumulative = -1.555e-05
GAMG:  Solving for p, Initial residual = 0.00107937, Final residual = 2.95112e-05, No Iterations 2
time step continuity errors : sum local = 9.03847e-07, global = 1.85921e-08, cumulative = -1.55314e-05
GAMG:  Solving for p, Initial residual = 0.000186055, Final residual = 5.048e-07, No Iterations 4
time step continuity errors : sum local = 1.5948e-08, global = 7.66791e-09, cumulative = -1.55238e-05
PIMPLE: Iteration 2
smoothSolver:  Solving for alpha.wetting, Initial residual = 0.000283526, Final residual = 1.00049e-09, No Iterations 2
Phase-1 volume fraction = 0.138889  Min(alpha.wetting) = 0  Max(alpha.wetting) = 1.00015
MULES: Correcting alpha.wetting
MULES: Correcting alpha.wetting
Phase-1 volume fraction = 0.138889  Min(alpha.wetting) = 0  Max(alpha.wetting) = 1.00015
smoothSolver:  Solving for alpha.wetting, Initial residual = 0.000262486, Final residual = 1.05547e-09, No Iterations 2
Phase-1 volume fraction = 0.138889  Min(alpha.wetting) = 0  Max(alpha.wetting) = 1.00016
MULES: Correcting alpha.wetting
MULES: Correcting alpha.wetting
Phase-1 volume fraction = 0.138889  Min(alpha.wetting) = 0  Max(alpha.wetting) = 1.00016
GAMG:  Solving for p, Initial residual = 0.0446207, Final residual = 0.000515103, No Iterations 1
time step continuity errors : sum local = 1.66119e-05, global = -1.11779e-08, cumulative = -1.55349e-05
GAMG:  Solving for p, Initial residual = 0.000638729, Final residual = 2.12373e-05, No Iterations 2
time step continuity errors : sum local = 6.73091e-07, global = 1.22866e-08, cumulative = -1.55227e-05
GAMG:  Solving for p, Initial residual = 9.68436e-05, Final residual = 6.62263e-07, No Iterations 4
time step continuity errors : sum local = 2.05978e-08, global = 1.17267e-08, cumulative = -1.55109e-05
ExecutionTime = 33.87 s  ClockTime = 34 s

Courant Number mean: 0.0113161 max: 1.0657
Interface Courant Number mean: 0.00135418 max: 0.685092
deltaT = 0.00424194
Time = 0.110016

PIMPLE: Iteration 1
smoothSolver:  Solving for alpha.wetting, Initial residual = 0.00024021, Final residual = 6.80093e-10, No Iterations 2
Phase-1 volume fraction = 0.138889  Min(alpha.wetting) = 0  Max(alpha.wetting) = 1.00016
MULES: Correcting alpha.wetting
MULES: Correcting alpha.wetting
Phase-1 volume fraction = 0.138889  Min(alpha.wetting) = 0  Max(alpha.wetting) = 1.00016
smoothSolver:  Solving for alpha.wetting, Initial residual = 0.000239786, Final residual = 6.87592e-10, No Iterations 2
Phase-1 volume fraction = 0.138889  Min(alpha.wetting) = 0  Max(alpha.wetting) = 1.00016
MULES: Correcting alpha.wetting
MULES: Correcting alpha.wetting
Phase-1 volume fraction = 0.138889  Min(alpha.wetting) = 0  Max(alpha.wetting) = 1.00016
GAMG:  Solving for p, Initial residual = 0.0366212, Final residual = 0.00064763, No Iterations 1
time step continuity errors : sum local = 1.71566e-05, global = 1.17658e-08, cumulative = -1.54992e-05
GAMG:  Solving for p, Initial residual = 0.000958279, Final residual = 2.70534e-05, No Iterations 2
time step continuity errors : sum local = 7.2075e-07, global = 1.0791e-08, cumulative = -1.54884e-05
GAMG:  Solving for p, Initial residual = 0.000143037, Final residual = 4.16159e-07, No Iterations 4
time step continuity errors : sum local = 1.13807e-08, global = 2.11138e-09, cumulative = -1.54863e-05
PIMPLE: Iteration 2
smoothSolver:  Solving for alpha.wetting, Initial residual = 0.00026184, Final residual = 6.14344e-10, No Iterations 2
Phase-1 volume fraction = 0.138889  Min(alpha.wetting) = 0  Max(alpha.wetting) = 1.00017
MULES: Correcting alpha.wetting
MULES: Correcting alpha.wetting
Phase-1 volume fraction = 0.138889  Min(alpha.wetting) = 0  Max(alpha.wetting) = 1.00017
smoothSolver:  Solving for alpha.wetting, Initial residual = 0.000241121, Final residual = 6.61262e-10, No Iterations 2
Phase-1 volume fraction = 0.138889  Min(alpha.wetting) = 0  Max(alpha.wetting) = 1.00018
MULES: Correcting alpha.wetting
MULES: Correcting alpha.wetting
Phase-1 volume fraction = 0.138889  Min(alpha.wetting) = 0  Max(alpha.wetting) = 1.00018
GAMG:  Solving for p, Initial residual = 0.029169, Final residual = 0.000361599, No Iterations 1
time step continuity errors : sum local = 1.0067e-05, global = -4.06223e-09, cumulative = -1.54903e-05
GAMG:  Solving for p, Initial residual = 0.000464264, Final residual = 1.81485e-05, No Iterations 2
time step continuity errors : sum local = 5.01821e-07, global = 1.19684e-09, cumulative = -1.54891e-05
GAMG:  Solving for p, Initial residual = 8.56516e-05, Final residual = 8.20174e-07, No Iterations 3
time step continuity errors : sum local = 2.23997e-08, global = 2.80341e-09, cumulative = -1.54863e-05
ExecutionTime = 35.16 s  ClockTime = 35 s

Courant Number mean: 0.0104828 max: 0.966313
Interface Courant Number mean: 0.00124908 max: 0.641655
deltaT = 0.00437451
Time = 0.11439

PIMPLE: Iteration 1
smoothSolver:  Solving for alpha.wetting, Initial residual = 0.000249283, Final residual = 7.69929e-10, No Iterations 2
Phase-1 volume fraction = 0.138889  Min(alpha.wetting) = 0  Max(alpha.wetting) = 1.00016
MULES: Correcting alpha.wetting
MULES: Correcting alpha.wetting
Phase-1 volume fraction = 0.138889  Min(alpha.wetting) = 0  Max(alpha.wetting) = 1.00016
smoothSolver:  Solving for alpha.wetting, Initial residual = 0.000248965, Final residual = 7.81355e-10, No Iterations 2
Phase-1 volume fraction = 0.138889  Min(alpha.wetting) = 0  Max(alpha.wetting) = 1.00015
MULES: Correcting alpha.wetting
MULES: Correcting alpha.wetting
Phase-1 volume fraction = 0.138889  Min(alpha.wetting) = 0  Max(alpha.wetting) = 1.00015
GAMG:  Solving for p, Initial residual = 0.116428, Final residual = 0.00126965, No Iterations 1
time step continuity errors : sum local = 3.86304e-05, global = 1.43636e-09, cumulative = -1.54849e-05
GAMG:  Solving for p, Initial residual = 0.001539, Final residual = 7.38362e-05, No Iterations 2
time step continuity errors : sum local = 2.32105e-06, global = 8.40019e-09, cumulative = -1.54765e-05
GAMG:  Solving for p, Initial residual = 0.000247951, Final residual = 9.24246e-07, No Iterations 5
time step continuity errors : sum local = 2.91432e-08, global = 1.44021e-08, cumulative = -1.54621e-05
PIMPLE: Iteration 2
smoothSolver:  Solving for alpha.wetting, Initial residual = 0.000274333, Final residual = 6.9179e-10, No Iterations 2
Phase-1 volume fraction = 0.138889  Min(alpha.wetting) = 0  Max(alpha.wetting) = 1.00018
MULES: Correcting alpha.wetting
MULES: Correcting alpha.wetting
Phase-1 volume fraction = 0.138889  Min(alpha.wetting) = 0  Max(alpha.wetting) = 1.00018
smoothSolver:  Solving for alpha.wetting, Initial residual = 0.000251084, Final residual = 7.54471e-10, No Iterations 2
Phase-1 volume fraction = 0.138889  Min(alpha.wetting) = 0  Max(alpha.wetting) = 1.00018
MULES: Correcting alpha.wetting
MULES: Correcting alpha.wetting
Phase-1 volume fraction = 0.138889  Min(alpha.wetting) = 0  Max(alpha.wetting) = 1.00018
GAMG:  Solving for p, Initial residual = 0.112619, Final residual = 0.00105366, No Iterations 1
time step continuity errors : sum local = 3.17487e-05, global = 1.88959e-08, cumulative = -1.54432e-05
GAMG:  Solving for p, Initial residual = 0.00132684, Final residual = 4.98021e-05, No Iterations 2
time step continuity errors : sum local = 1.43022e-06, global = 3.91078e-09, cumulative = -1.54393e-05
GAMG:  Solving for p, Initial residual = 0.000209168, Final residual = 7.79988e-07, No Iterations 5
time step continuity errors : sum local = 2.14932e-08, global = -8.46897e-09, cumulative = -1.54477e-05
ExecutionTime = 36.49 s  ClockTime = 37 s

Courant Number mean: 0.0109874 max: 1.00199
Interface Courant Number mean: 0.00130858 max: 0.736135
deltaT = 0.0042378
Time = 0.118628

PIMPLE: Iteration 1
[...]
Phase-1 volume fraction = 0.138885  Min(alpha.wetting) = 0  Max(alpha.wetting) = 1.00096
MULES: Correcting alpha.wetting
MULES: Correcting alpha.wetting
Phase-1 volume fraction = 0.138885  Min(alpha.wetting) = 0  Max(alpha.wetting) = 1.00096
GAMG:  Solving for p, Initial residual = 0.0142573, Final residual = 0.000564863, No Iterations 1
time step continuity errors : sum local = 2.62273e-05, global = -5.72821e-09, cumulative = -1.3588e-05
GAMG:  Solving for p, Initial residual = 0.00104174, Final residual = 4.15129e-05, No Iterations 2
time step continuity errors : sum local = 1.93825e-06, global = -3.55217e-09, cumulative = -1.35915e-05
GAMG:  Solving for p, Initial residual = 0.000206184, Final residual = 7.82464e-07, No Iterations 4
time step continuity errors : sum local = 3.64611e-08, global = 7.70051e-09, cumulative = -1.35838e-05
PIMPLE: Iteration 2
smoothSolver:  Solving for alpha.wetting, Initial residual = 0.000165971, Final residual = 1.05741e-10, No Iterations 2
Phase-1 volume fraction = 0.138885  Min(alpha.wetting) = 0  Max(alpha.wetting) = 1.00097
MULES: Correcting alpha.wetting
MULES: Correcting alpha.wetting
Phase-1 volume fraction = 0.138885  Min(alpha.wetting) = 0  Max(alpha.wetting) = 1.00097
smoothSolver:  Solving for alpha.wetting, Initial residual = 0.000142581, Final residual = 1.41005e-10, No Iterations 2
Phase-1 volume fraction = 0.138885  Min(alpha.wetting) = 0  Max(alpha.wetting) = 1.00097
MULES: Correcting alpha.wetting
MULES: Correcting alpha.wetting
Phase-1 volume fraction = 0.138885  Min(alpha.wetting) = 0  Max(alpha.wetting) = 1.00097
GAMG:  Solving for p, Initial residual = 0.012809, Final residual = 0.000536917, No Iterations 1
time step continuity errors : sum local = 2.48861e-05, global = 2.29778e-08, cumulative = -1.35608e-05
GAMG:  Solving for p, Initial residual = 0.000787944, Final residual = 4.07507e-05, No Iterations 2
time step continuity errors : sum local = 1.87978e-06, global = 1.42185e-08, cumulative = -1.35466e-05
GAMG:  Solving for p, Initial residual = 0.000111507, Final residual = 5.11128e-07, No Iterations 5
time step continuity errors : sum local = 2.3574e-08, global = 6.39541e-10, cumulative = -1.3546e-05
ExecutionTime = 145.51 s  ClockTime = 146 s

Courant Number mean: 0.00751477 max: 0.974673
Interface Courant Number mean: 0.000798561 max: 0.53331
deltaT = 0.0045371
Time = 0.523145

PIMPLE: Iteration 1
smoothSolver:  Solving for alpha.wetting, Initial residual = 0.000149572, Final residual = 1.6151e-10, No Iterations 2
Phase-1 volume fraction = 0.138885  Min(alpha.wetting) = 0  Max(alpha.wetting) = 1.00097
MULES: Correcting alpha.wetting
MULES: Correcting alpha.wetting
Phase-1 volume fraction = 0.138885  Min(alpha.wetting) = 0  Max(alpha.wetting) = 1.00097
smoothSolver:  Solving for alpha.wetting, Initial residual = 0.000149115, Final residual = 1.68714e-10, No Iterations 2
Phase-1 volume fraction = 0.138885  Min(alpha.wetting) = 0  Max(alpha.wetting) = 1.00097
MULES: Correcting alpha.wetting
MULES: Correcting alpha.wetting
Phase-1 volume fraction = 0.138885  Min(alpha.wetting) = 0  Max(alpha.wetting) = 1.00097
GAMG:  Solving for p, Initial residual = 0.0134992, Final residual = 0.000563779, No Iterations 1
time step continuity errors : sum local = 2.68808e-05, global = -6.72877e-09, cumulative = -1.35527e-05
GAMG:  Solving for p, Initial residual = 0.000980905, Final residual = 4.01055e-05, No Iterations 2
time step continuity errors : sum local = 1.92075e-06, global = -3.57217e-09, cumulative = -1.35563e-05
GAMG:  Solving for p, Initial residual = 0.000184882, Final residual = 6.81693e-07, No Iterations 5
time step continuity errors : sum local = 3.26534e-08, global = 2.7907e-09, cumulative = -1.35535e-05
PIMPLE: Iteration 2
smoothSolver:  Solving for alpha.wetting, Initial residual = 0.000165612, Final residual = 1.18622e-10, No Iterations 2
Phase-1 volume fraction = 0.138885  Min(alpha.wetting) = 0  Max(alpha.wetting) = 1.00097
MULES: Correcting alpha.wetting
MULES: Correcting alpha.wetting
Phase-1 volume fraction = 0.138885  Min(alpha.wetting) = 0  Max(alpha.wetting) = 1.00097
smoothSolver:  Solving for alpha.wetting, Initial residual = 0.000142028, Final residual = 1.59077e-10, No Iterations 2
Phase-1 volume fraction = 0.138885  Min(alpha.wetting) = 0  Max(alpha.wetting) = 1.00098
MULES: Correcting alpha.wetting
MULES: Correcting alpha.wetting
Phase-1 volume fraction = 0.138885  Min(alpha.wetting) = 0  Max(alpha.wetting) = 1.00098
GAMG:  Solving for p, Initial residual = 0.0135232, Final residual = 0.000554371, No Iterations 1
time step continuity errors : sum local = 2.65391e-05, global = 1.44996e-08, cumulative = -1.3539e-05
GAMG:  Solving for p, Initial residual = 0.000802901, Final residual = 3.74264e-05, No Iterations 2
time step continuity errors : sum local = 1.78875e-06, global = 3.0231e-09, cumulative = -1.3536e-05
GAMG:  Solving for p, Initial residual = 0.000109449, Final residual = 5.43693e-07, No Iterations 5
time step continuity errors : sum local = 2.59158e-08, global = -1.67505e-09, cumulative = -1.35376e-05
ExecutionTime = 146.84 s  ClockTime = 147 s

Courant Number mean: 0.00756692 max: 0.920683
Interface Courant Number mean: 0.000800973 max: 0.465312
deltaT = 0.0048267
Time = 0.527972

PIMPLE: Iteration 1
smoothSolver:  Solving for alpha.wetting, Initial residual = 0.000155565, Final residual = 2.25144e-10, No Iterations 2
Phase-1 volume fraction = 0.138885  Min(alpha.wetting) = 0  Max(alpha.wetting) = 1.00098
MULES: Correcting alpha.wetting
MULES: Correcting alpha.wetting
Phase-1 volume fraction = 0.138885  Min(alpha.wetting) = 0  Max(alpha.wetting) = 1.00098
smoothSolver:  Solving for alpha.wetting, Initial residual = 0.000155205, Final residual = 2.36008e-10, No Iterations 2
Phase-1 volume fraction = 0.138885  Min(alpha.wetting) = 0  Max(alpha.wetting) = 1.00098
MULES: Correcting alpha.wetting
MULES: Correcting alpha.wetting
Phase-1 volume fraction = 0.138885  Min(alpha.wetting) = 0  Max(alpha.wetting) = 1.00098
GAMG:  Solving for p, Initial residual = 0.0128896, Final residual = 0.000542972, No Iterations 1
time step continuity errors : sum local = 2.84564e-05, global = -8.05487e-09, cumulative = -1.35457e-05
GAMG:  Solving for p, Initial residual = 0.000960606, Final residual = 3.60057e-05, No Iterations 2
time step continuity errors : sum local = 1.89441e-06, global = -4.00529e-09, cumulative = -1.35497e-05
GAMG:  Solving for p, Initial residual = 0.000177441, Final residual = 5.79991e-07, No Iterations 5
time step continuity errors : sum local = 3.06e-08, global = 1.32175e-09, cumulative = -1.35484e-05
PIMPLE: Iteration 2
smoothSolver:  Solving for alpha.wetting, Initial residual = 0.00017416, Final residual = 1.63254e-10, No Iterations 2
Phase-1 volume fraction = 0.138885  Min(alpha.wetting) = 0  Max(alpha.wetting) = 1.00098
MULES: Correcting alpha.wetting
MULES: Correcting alpha.wetting
Phase-1 volume fraction = 0.138885  Min(alpha.wetting) = 0  Max(alpha.wetting) = 1.00098
smoothSolver:  Solving for alpha.wetting, Initial residual = 0.000147604, Final residual = 2.21268e-10, No Iterations 2
Phase-1 volume fraction = 0.138885  Min(alpha.wetting) = 0  Max(alpha.wetting) = 1.00098
MULES: Correcting alpha.wetting
MULES: Correcting alpha.wetting
Phase-1 volume fraction = 0.138885  Min(alpha.wetting) = 0  Max(alpha.wetting) = 1.00098
GAMG:  Solving for p, Initial residual = 0.0109791, Final residual = 0.000542054, No Iterations 1
time step continuity errors : sum local = 2.86671e-05, global = 1.33206e-08, cumulative = -1.35351e-05
GAMG:  Solving for p, Initial residual = 0.000813878, Final residual = 3.50583e-05, No Iterations 2
time step continuity errors : sum local = 1.85319e-06, global = 3.67829e-09, cumulative = -1.35314e-05
GAMG:  Solving for p, Initial residual = 0.000111053, Final residual = 4.65102e-07, No Iterations 5
time step continuity errors : sum local = 2.4547e-08, global = -1.0895e-09, cumulative = -1.35325e-05
ExecutionTime = 148.15 s  ClockTime = 149 s

Courant Number mean: 0.00797229 max: 0.879745
Interface Courant Number mean: 0.000859233 max: 0.498814
deltaT = 0.00528639
Time = 0.533258

PIMPLE: Iteration 1
smoothSolver:  Solving for alpha.wetting, Initial residual = 0.000167629, Final residual = 3.63587e-10, No Iterations 2
Phase-1 volume fraction = 0.138885  Min(alpha.wetting) = 0  Max(alpha.wetting) = 1.00097
MULES: Correcting alpha.wetting
MULES: Correcting alpha.wetting
Phase-1 volume fraction = 0.138885  Min(alpha.wetting) = 0  Max(alpha.wetting) = 1.00097
smoothSolver:  Solving for alpha.wetting, Initial residual = 0.000167316, Final residual = 3.83426e-10, No Iterations 2
Phase-1 volume fraction = 0.138885  Min(alpha.wetting) = 0  Max(alpha.wetting) = 1.00097
MULES: Correcting alpha.wetting
MULES: Correcting alpha.wetting
Phase-1 volume fraction = 0.138885  Min(alpha.wetting) = 0  Max(alpha.wetting) = 1.00097
GAMG:  Solving for p, Initial residual = 0.0158222, Final residual = 0.000565291, No Iterations 1
time step continuity errors : sum local = 3.42509e-05, global = -5.14469e-09, cumulative = -1.35376e-05
GAMG:  Solving for p, Initial residual = 0.00107397, Final residual = 3.34336e-05, No Iterations 2
time step continuity errors : sum local = 2.02956e-06, global = -5.96556e-09, cumulative = -1.35436e-05
GAMG:  Solving for p, Initial residual = 0.00020746, Final residual = 6.55244e-07, No Iterations 4
time step continuity errors : sum local = 3.97853e-08, global = -5.49213e-09, cumulative = -1.35491e-05
PIMPLE: Iteration 2
smoothSolver:  Solving for alpha.wetting, Initial residual = 0.000190353, Final residual = 2.76348e-10, No Iterations 2
Phase-1 volume fraction = 0.138885  Min(alpha.wetting) = 0  Max(alpha.wetting) = 1.00098
MULES: Correcting alpha.wetting
MULES: Correcting alpha.wetting
Phase-1 volume fraction = 0.138885  Min(alpha.wetting) = 0  Max(alpha.wetting) = 1.00098
smoothSolver:  Solving for alpha.wetting, Initial residual = 0.000158071, Final residual = 3.58395e-10, No Iterations 2
Phase-1 volume fraction = 0.138885  Min(alpha.wetting) = 0  Max(alpha.wetting) = 1.00099
MULES: Correcting alpha.wetting
MULES: Correcting alpha.wetting
Phase-1 volume fraction = 0.138885  Min(alpha.wetting) = 0  Max(alpha.wetting) = 1.00099
GAMG:  Solving for p, Initial residual = 0.0328236, Final residual = 0.000674407, No Iterations 1
time step continuity errors : sum local = 4.10618e-05, global = -7.96417e-09, cumulative = -1.3557e-05
GAMG:  Solving for p, Initial residual = 0.00103222, Final residual = 3.68282e-05, No Iterations 2
time step continuity errors : sum local = 2.24452e-06, global = 6.14153e-10, cumulative = -1.35564e-05
GAMG:  Solving for p, Initial residual = 0.000144699, Final residual = 4.90504e-07, No Iterations 5
time step continuity errors : sum local = 2.98512e-08, global = 7.52208e-09, cumulative = -1.35489e-05
ExecutionTime = 149.46 s  ClockTime = 150 s

Courant Number mean: 0.00868412 max: 0.911277
Interface Courant Number mean: 0.000953737 max: 0.554714
deltaT = 0.00570373
Time = 0.538962

PIMPLE: Iteration 1
smoothSolver:  Solving for alpha.wetting, Initial residual = 0.0001806, Final residual = 5.68359e-10, No Iterations 2
Phase-1 volume fraction = 0.138885  Min(alpha.wetting) = 0  Max(alpha.wetting) = 1.00099
MULES: Correcting alpha.wetting
MULES: Correcting alpha.wetting
Phase-1 volume fraction = 0.138885  Min(alpha.wetting) = 0  Max(alpha.wetting) = 1.00099
smoothSolver:  Solving for alpha.wetting, Initial residual = 0.000179963, Final residual = 5.96212e-10, No Iterations 2
Phase-1 volume fraction = 0.138885  Min(alpha.wetting) = 0  Max(alpha.wetting) = 1.00099
MULES: Correcting alpha.wetting
MULES: Correcting alpha.wetting
Phase-1 volume fraction = 0.138885  Min(alpha.wetting) = 0  Max(alpha.wetting) = 1.00099
GAMG:  Solving for p, Initial residual = 0.0191614, Final residual = 0.000620704, No Iterations 1
time step continuity errors : sum local = 4.24365e-05, global = 1.79892e-08, cumulative = -1.35309e-05
GAMG:  Solving for p, Initial residual = 0.00144307, Final residual = 3.41503e-05, No Iterations 2
time step continuity errors : sum local = 2.33628e-06, global = 2.16405e-08, cumulative = -1.35093e-05
GAMG:  Solving for p, Initial residual = 0.000316916, Final residual = 9.36144e-07, No Iterations 5
time step continuity errors : sum local = 6.42489e-08, global = 1.79203e-08, cumulative = -1.34914e-05
PIMPLE: Iteration 2
smoothSolver:  Solving for alpha.wetting, Initial residual = 0.000207366, Final residual = 4.47536e-10, No Iterations 2
Phase-1 volume fraction = 0.138885  Min(alpha.wetting) = 0  Max(alpha.wetting) = 1.00099
MULES: Correcting alpha.wetting
MULES: Correcting alpha.wetting
Phase-1 volume fraction = 0.138885  Min(alpha.wetting) = 0  Max(alpha.wetting) = 1.00099
smoothSolver:  Solving for alpha.wetting, Initial residual = 0.000166843, Final residual = 5.40632e-10, No Iterations 2
Phase-1 volume fraction = 0.138885  Min(alpha.wetting) = 0  Max(alpha.wetting) = 1.00099
MULES: Correcting alpha.wetting
MULES: Correcting alpha.wetting
Phase-1 volume fraction = 0.138885  Min(alpha.wetting) = 0  Max(alpha.wetting) = 1.00099
GAMG:  Solving for p, Initial residual = 0.020054, Final residual = 0.000659655, No Iterations 1
time step continuity errors : sum local = 4.553e-05, global = 2.70723e-08, cumulative = -1.34643e-05
GAMG:  Solving for p, Initial residual = 0.00117051, Final residual = 2.56122e-05, No Iterations 2
time step continuity errors : sum local = 1.77511e-06, global = 3.31077e-08, cumulative = -1.34312e-05
GAMG:  Solving for p, Initial residual = 0.0001749, Final residual = 5.12615e-07, No Iterations 4
time step continuity errors : sum local = 3.52108e-08, global = 1.07463e-08, cumulative = -1.34204e-05
ExecutionTime = 150.79 s  ClockTime = 151 s

Courant Number mean: 0.00940194 max: 0.990877
Interface Courant Number mean: 0.00107615 max: 0.693632
deltaT = 0.00570373
Time = 0.544666

PIMPLE: Iteration 1
smoothSolver:  Solving for alpha.wetting, Initial residual = 0.000182445, Final residual = 7.84133e-10, No Iterations 2
Phase-1 volume fraction = 0.138885  Min(alpha.wetting) = 0  Max(alpha.wetting) = 1.00099
MULES: Correcting alpha.wetting
MULES: Correcting alpha.wetting
Phase-1 volume fraction = 0.138885  Min(alpha.wetting) = 0  Max(alpha.wetting) = 1.00099
smoothSolver:  Solving for alpha.wetting, Initial residual = 0.000181189, Final residual = 8.05407e-10, No Iterations 2
Phase-1 volume fraction = 0.138885  Min(alpha.wetting) = 0  Max(alpha.wetting) = 1.001
MULES: Correcting alpha.wetting
MULES: Correcting alpha.wetting
Phase-1 volume fraction = 0.138885  Min(alpha.wetting) = 0  Max(alpha.wetting) = 1.001
GAMG:  Solving for p, Initial residual = 0.02895, Final residual = 0.000748731, No Iterations 1
time step continuity errors : sum local = 5.14868e-05, global = -2.37207e-08, cumulative = -1.34441e-05
GAMG:  Solving for p, Initial residual = 0.0020252, Final residual = 4.06772e-05, No Iterations 2
time step continuity errors : sum local = 2.80324e-06, global = 5.13959e-09, cumulative = -1.3439e-05
GAMG:  Solving for p, Initial residual = 0.000502601, Final residual = 4.23538e-07, No Iterations 6
time step continuity errors : sum local = 2.93876e-08, global = 9.29143e-09, cumulative = -1.34297e-05
PIMPLE: Iteration 2
smoothSolver:  Solving for alpha.wetting, Initial residual = 0.000210871, Final residual = 4.97626e-10, No Iterations 2
Phase-1 volume fraction = 0.138885  Min(alpha.wetting) = 0  Max(alpha.wetting) = 1.00099
MULES: Correcting alpha.wetting
MULES: Correcting alpha.wetting
Phase-1 volume fraction = 0.138885  Min(alpha.wetting) = 0  Max(alpha.wetting) = 1.00099
smoothSolver:  Solving for alpha.wetting, Initial residual = 0.000163333, Final residual = 5.6608e-10, No Iterations 2
Phase-1 volume fraction = 0.138885  Min(alpha.wetting) = 0  Max(alpha.wetting) = 1.00099
MULES: Correcting alpha.wetting
MULES: Correcting alpha.wetting
Phase-1 volume fraction = 0.138885  Min(alpha.wetting) = 0  Max(alpha.wetting) = 1.00099
GAMG:  Solving for p, Initial residual = 0.0274236, Final residual = 0.000822282, No Iterations 1
time step continuity errors : sum local = 5.73256e-05, global = 3.12552e-08, cumulative = -1.33985e-05
GAMG:  Solving for p, Initial residual = 0.00142692, Final residual = 2.56638e-05, No Iterations 2
time step continuity errors : sum local = 1.8011e-06, global = 9.53968e-09, cumulative = -1.33889e-05
GAMG:  Solving for p, Initial residual = 0.000220304, Final residual = 7.6466e-07, No Iterations 4
time step continuity errors : sum local = 5.25516e-08, global = -5.64924e-09, cumulative = -1.33946e-05
ExecutionTime = 152.1 s  ClockTime = 153 s

Courant Number mean: 0.00945351 max: 1.00954
Interface Courant Number mean: 0.00111576 max: 0.789149
deltaT = 0.00554958
Time = 0.550215

PIMPLE: Iteration 1
smoothSolver:  Solving for alpha.wetting, Initial residual = 0.000179122, Final residual = 1.09829e-09, No Iterations 2
Phase-1 volume fraction = 0.138885  Min(alpha.wetting) = 0  Max(alpha.wetting) = 1.00099
MULES: Correcting alpha.wetting
MULES: Correcting alpha.wetting
Phase-1 volume fraction = 0.138885  Min(alpha.wetting) = 0  Max(alpha.wetting) = 1.00099
smoothSolver:  Solving for alpha.wetting, Initial residual = 0.00017751, Final residual = 1.10746e-09, No Iterations 2
Phase-1 volume fraction = 0.138885  Min(alpha.wetting) = 0  Max(alpha.wetting) = 1.00099
MULES: Correcting alpha.wetting
MULES: Correcting alpha.wetting
Phase-1 volume fraction = 0.138885  Min(alpha.wetting) = 0  Max(alpha.wetting) = 1.00099
GAMG:  Solving for p, Initial residual = 0.019519, Final residual = 0.000772996, No Iterations 1
time step continuity errors : sum local = 5.09371e-05, global = -2.53383e-08, cumulative = -1.34199e-05
GAMG:  Solving for p, Initial residual = 0.00234914, Final residual = 4.40332e-05, No Iterations 2
time step continuity errors : sum local = 2.89524e-06, global = -2.33536e-08, cumulative = -1.34433e-05
GAMG:  Solving for p, Initial residual = 0.000666559, Final residual = 9.61607e-07, No Iterations 5
time step continuity errors : sum local = 6.38495e-08, global = -7.70606e-09, cumulative = -1.3451e-05
PIMPLE: Iteration 2
smoothSolver:  Solving for alpha.wetting, Initial residual = 0.000210222, Final residual = 5.32927e-10, No Iterations 2
Phase-1 volume fraction = 0.138885  Min(alpha.wetting) = 0  Max(alpha.wetting) = 1.00099
MULES: Correcting alpha.wetting
MULES: Correcting alpha.wetting
Phase-1 volume fraction = 0.138885  Min(alpha.wetting) = 0  Max(alpha.wetting) = 1.00099
smoothSolver:  Solving for alpha.wetting, Initial residual = 0.000154467, Final residual = 5.13763e-10, No Iterations 2
Phase-1 volume fraction = 0.138885  Min(alpha.wetting) = 0  Max(alpha.wetting) = 1.00099
MULES: Correcting alpha.wetting
MULES: Correcting alpha.wetting
Phase-1 volume fraction = 0.138885  Min(alpha.wetting) = 0  Max(alpha.wetting) = 1.00099
GAMG:  Solving for p, Initial residual = 0.0252463, Final residual = 0.000884583, No Iterations 1
time step continuity errors : sum local = 5.92746e-05, global = 8.54766e-09, cumulative = -1.34424e-05
GAMG:  Solving for p, Initial residual = 0.00148494, Final residual = 3.48037e-05, No Iterations 2
time step continuity errors : sum local = 2.34037e-06, global = 7.90234e-09, cumulative = -1.34345e-05
GAMG:  Solving for p, Initial residual = 0.000219766, Final residual = 6.80985e-07, No Iterations 4
time step continuity errors : sum local = 4.53449e-08, global = 2.86966e-09, cumulative = -1.34317e-05
ExecutionTime = 153.42 s  ClockTime = 154 s

Courant Number mean: 0.00919969 max: 0.905329
Interface Courant Number mean: 0.0011054 max: 0.846763
deltaT = 0.00605409
Time = 0.556269

PIMPLE: Iteration 1
smoothSolver:  Solving for alpha.wetting, Initial residual = 0.00019395, Final residual = 1.7259e-09, No Iterations 2
Phase-1 volume fraction = 0.138885  Min(alpha.wetting) = 0  Max(alpha.wetting) = 1.00099
MULES: Correcting alpha.wetting
